         307

 H      11.716566343615730        8.0661175678543042        8.1453860911307618     
 H      11.558948722010870        12.328683896281632        39.683908155929672     
 H      12.049557779968318        7.1280740436249781        13.754692917315650     
 H      10.101520886629668        6.0896292367033595        32.684151166145867     
 H      9.3851304144651611        6.8495026814795335        21.724425499064385     
 H      6.8660694505529074        9.9828913420959022        35.687477407030272     
 H      8.7140018181526226        6.8111943725742137        5.2816729315906290     
 H      12.822625748068184        9.0306436230277427        25.923696533352206     
 H      7.3743393595869815        10.924716440150037        7.1660601478392829     
 H      12.566185090816749        7.9177925663957813        3.1356741161662764     
 H      9.2097253670824326        6.0830511456374339        33.691065733709216     
 H      7.9777090528786418        6.3729093180307519        26.408975445938587     
 H      8.9339602608396440        6.8548905452027151        28.175489103638096     
 H      10.774252781935825        12.638593933651672        28.915371211298933     
 H      12.426383428143685        7.6275904070020282        35.733925236591844     
 H      6.2997733516089536        10.727825515784682        20.019074698881649     
 H      7.8553263299074612        6.4281358483316371        39.543059790551823     
 H      9.6957234270526946        12.954551743534925        34.492630649379251     
 H      10.993560928910828        11.538287494647097        10.023562730041887     
 H      8.7172080196040671        6.1378157914071192        21.468584120395683     
 H      8.6633747880093779        6.1554822217426652        10.016033275046492     
 H      12.983181371262994        9.7191345835243297        23.511422061946696     
 H      6.2604170245788868        10.729562943097340        37.396125207578947     
 H      8.8240097082222935        6.1519757169688294        27.248689887168432     
 H      12.970486755927567        9.1136282509808204        30.023761607151993     
 H      11.850071883898801        8.6244578542723502        12.772888701267494     
 H      6.0198027029471852        9.2740467696751043        24.319794391995607     
 H      9.4864089481090907        6.0071977969635766        26.359300227242358     
 H      11.228053629447880        12.434120260657080        4.5281241932384990     
 H      6.6576250102357175        11.531969972726806        36.675266288961623     
 H      9.3074086798597833        6.9305668477108968        9.8979179223909295     
 H      7.7690896157816649        6.4688784253923179        5.1381067078252087     
 H      6.2137155328984477        10.174296092829373        34.848601490905374     
 H      8.5503971499032332        6.2032599532566817        4.3951286212003646     
 H      6.2405242410331319        10.238253610119962       0.69345553667902560     
 H      9.9915014835918186        6.0424452423746393        21.616961770157552     
 H      7.0760082025146982        10.627731697314745        36.466535768207777     
 H      12.395669470308105        7.5773725666394789        1.3764035419030174     
 H      12.853936423915279        8.5686662561073099        37.491408344304098     
 H      6.9921815564069369        11.852510151590820        1.5062940342819953     
 H      9.2235858016175953        12.106393227578817        15.633188062245965     
 H      7.0698152662450910        10.544952598102505        2.3507857193581665     
 H      6.3189869217661263        10.700102280826421        3.0468380204506782     
 H      9.5690090532628478        12.990112774957248        27.046297110186476     
 H      6.1343639006535504        9.0082968660924116        36.524674530950712     
 H      6.9921348090241695        11.715921903232481        35.723699002728594     
 H      10.382574980286334        12.836245894724920        37.818038896554228     
 H      11.467799376946029        12.373170322843293        28.236413591023080     
 H      8.2629198141597247        7.2352625537806281        15.797828583644408     
 H      7.0793699376172059        10.473771334410964        30.754904011674761     
 H      12.058342160624445        9.2262362248564891        31.011493329923429     
 H      12.707927723278829        8.1313504496988518        8.0051586696620873     
 H      10.370341606248529        12.775542681173597        5.2378739347381078     
 H      9.5741124145673968        12.092202393015086        22.282614561960415     
 H      6.5286423525618460        11.266814424996316        12.121648333879570     
 H      7.4562928810781477        6.6639647469233099        15.472556121294897     
 H      11.171410476766249        9.1791828013885688        18.864466508434944     
 H      6.5392505623344217        11.314635418125548        30.917284652035683     
 H      8.1278031789294918        6.3396174615905663        14.787599503318107     
 H      7.1776895404932732        10.596796267226743        23.948594912133977     
 H      11.992102636432115        7.1837509922496521        2.2445644969058427     
 H      7.4558334510470017        6.8780333761094692        38.597321794283822     
 H      6.0565089745915630        9.2859127149785330        18.549038766440621     
 H      12.033618081106365        11.761726085669803        10.023187574866968     
 H      9.8279132628052626        12.982337038266325        4.4198005660046018     
 H      8.2374355186236539        7.1336210762891445        9.9687789521190631     
 H      8.7863702197863347        6.8887699900351054        10.813957170377819     
 H      8.3250965825192065        7.2364283992443870        4.4446132827067260     
 H      6.0768624669406774        9.8677177954245305        25.150217525751106     
 H      8.0032584021882212        6.4184050448857874        3.5770269489679598     
 H      8.4953399772826046        6.2643891048429872        11.578774955203279     
 H      6.1153939389209420        10.139901475617982        30.847016603771308     
 H      9.2562916720581736        7.0973262697431689        15.635511906624641     
 H      12.117376997849030        9.6080904971131584        18.708150025999206     
 H      12.938609728182676        9.0276364195152681        1.4990799318147685     
 H      6.6829173265181590        11.566493486004187        24.291883368487831     
 H      6.2510238525192943        10.633105486625800        12.925596081627930     
 H      12.854154009049255        8.9874381693662091        14.633325317240219     
 H      12.624995023030793        8.1730235708609875        19.474134009425089     
 H      10.421022556014949        12.806194076565879        9.2780337035944882     
 H      11.946213279597988        9.0298319137254364        19.549999498824782     
 H      7.4487788621080391        6.6684830796485084        21.509697992836102     
 H      6.0777642293302838        9.9787136409828374        19.364510308629818     
 H      12.967628687111494        9.5842554610615114        13.687080761368401     
 H      8.1892615064812855        6.2743896867127473        22.323493722660700     
 H      11.543018533515657        12.169103858181893        34.044097185487985     
 H      10.544872499855048        11.800149946515786        33.858187834568334     
 H      10.365944415867173        12.756899148464550        3.5450669884369468     
 H      7.2810038706965736        6.8407198540744885        9.9707876644320770     
 H      7.2574122067997235        10.754189260089916        13.138688800765387     
 H      7.8881180585862856        6.4566716075127539        16.355711718611776     
 H      7.4114538378667110        6.7249836327141521        32.928862640294334     
 H      11.993178530584538        7.3822211246749525        23.442857560090459     
 H      9.9136623459660314        6.7087143774137967        39.634118921878240     
 H      7.3105292446195804        12.116466655588088        8.1654836542665397     
 H      12.887431995971328        8.6617132724182717        8.8884141644237893     
 H      6.0802330941117866        10.075070640267327        7.8700037561257350     
 H      12.114660272678107        9.0384835917508948        7.9644047359173324     
 H      10.274726058705451        12.893291732157810        27.795631579736423     
 H      9.8253574541563751        6.0501872975594022        9.9596205302771796     
 H      10.758917006038974        12.513402732161017        11.783796721007272     
 H      7.1075177275866617        9.4750724850988011        30.895877080576845     
 H      7.0862637107750270        10.278197311550230        12.170213491165141     
 H      10.064786104658447        12.913561104277980        11.038696792314910     
 H      10.577103736648686        11.951315827195092        10.931537062197462     
 H      6.0084834285797539        9.4996404465788782        1.4539451293057279     
 H      10.468167944908190        12.715526593070857        15.061466970737255     
 H      6.9016144205824572        11.821935129368990        7.2559043086150652     
 H      7.9967487783642763        6.4682122152176795        32.086612674306132     
 H      12.087140321691857        9.1031671663094347        2.4491392662810401     
 H      12.818926036188760        8.5145609554681823        30.874114193214677     
 H      9.8336368299584436        12.710442989194384        17.381049642706710     
 H      6.1226829332483561        9.0291055638314486        2.4859175931964739     
 H      9.2007443173559640        12.494893332725834        20.740279302144721     
 H      9.0478101698963957        12.910588321247594        22.552881516274798     
 H      7.0325527734441460        9.4913780899519171        2.3391848552090262     
 H      8.4164665901266247        7.1527193170134513        21.393400140648595     
 H      12.934074883764577        10.140302377566934        18.482362055579408     
 H      12.705259589450566        8.0986691543272649        36.610425907870727     
 H      6.0056348987000190        9.4294002490887099        35.563990636614136     
 H      6.5694015166970541        11.397630705947281        19.295249168446553     
 H      12.503261949680097        7.7879934520014089        12.933917166242482     
 H      10.700314881621727        12.765618452612756        10.264982238922526     
 H      6.0785474767007486        10.222969478001161        2.1623958642660361     
 H      9.2115832183235380        6.0263663049122256        39.377722492420801     
 H      7.3926091169433414        6.7118579529937659        27.229138259323474     
 H      12.887404559586111        8.7949139749064482        7.2264545435603438     
 H      11.752243437986518        9.4870653169463406        35.774065650079429     
 H      6.9556908223986333        9.9311007641304858        7.0879116452762174     
 H      10.186092127078265        12.044050102187954        4.4088666956057647     
 H      7.8370517768484342        6.4585121113081509        10.759175815461086     
 H      8.0953141705226130        6.3115579136438953        28.069511388500718     
 H      8.1513868977900135        6.5242225351819680        20.575106986976962     
 H      8.3000226076714121        7.1729304877741153        32.795309573250009     
 H      12.737613289662059        8.3417425235962099        23.498397040862521     
 H      12.863227875612724        9.3200491742862468        35.049871919715152     
 H      6.3745207800472130        11.018881460913978        13.868314045459678     
 H      11.821285157241995        12.098893751369310        26.685314961837573     
 H      9.7562662147025865        12.815716697258269        28.848709768447360     
 H      6.3574363434718544        10.421969887409597        25.950575777305524     
 H      10.511569916546032        12.845318710025618        21.982226057084603     
 H      12.908464091786678        8.8921668669828158        12.886284045219636     
 H      6.2661598684239568        9.0183907465399518        13.645395483069775     
 H      12.402766730828036        7.5546359080059879        8.8277210034475022     
 H      9.8760393397458888        6.0409593946700380        38.551059737015123     
 H      8.7875170996696053        6.9043358588253581        16.582590959487447     
 H      12.764412869594796        8.3839961171848412        13.736853093379226     
 H      10.515922174850990        12.802847110496895        16.494541078080207     
 H      11.767486410516865        8.2628074142543273        30.831496466916406     
 H      6.6536121912160517        11.524002585399636        2.4059763018798184     
 H      6.9690007416504649        9.6370335497287698        24.177032546332086     
 H      7.2041392949828484        6.8751393443892796        4.2388838170420842     
 H      9.5216018084232896        12.975786592451481        21.562534553289343     
 H      12.817443221725318        8.9721614209634168        3.2113250270008611     
 H      11.061074782534424        11.429515830438417        4.4005186361775257     
 H      10.896540854921303        12.637668782111760       0.48241811895061509     
 H      12.706477070468354        8.2527778954209996       0.70706602578491340     
 H      11.833572280755286        8.4489076821543012        7.1810933027196784     
 H      9.2985101793024079        6.8876513213521431        38.744632977147099     
 H      10.244538539684465        6.1979594660783395        33.990963115143728     
 H      10.307198017041436        12.887508323736469        33.689222076866081     
 H      8.5576910382159639        6.1342195755111755        32.859262760027335     
 H      9.2299785095139910        6.0479128411108043        32.092352507910277     
 H      9.4953686714274159        6.0129888386100756        28.006931640199436     
 H      6.3058265799165820        10.924304338389332        35.855603624447987     
 H      11.072553550341787        12.603767598904932        33.094808082875808     
 H      10.365016523753756        12.866245453015797        23.005437384983672     
 H      9.6801553866873320        12.944053594035211        32.892271653930749     
 H      11.558801335079677        12.304010144640037        11.011559377851265     
 H      6.0366741299762463        9.3279731355920390        30.046617997711305     
 H      12.889639471414720        9.0121962796811701        24.230619342053256     
 H      6.5492804085682943        11.318715226718357        8.0793340296891163     
 H      12.804073133124753        8.4052549893086486        25.125244704311758     
 H      12.985408435229406        9.4001203242038862        17.751208911828932     
 H      6.7996618266091540        11.703807919955155        13.074499486713497     
 H      10.092824605017942        11.107459404960997        39.064955302389841     
 H      9.2882970509140144        12.968533287001199        39.542841061432966     
 H      12.564161235155686        7.8928209475790618        29.805435236959770     
 H      12.809443341831308        10.074557872794275        35.780256796529692     
 H      12.735061857923181        8.2652905085845170        2.1986676870815911     
 H      11.172951003977735        12.508178007948189        15.763448726146116     
 H      8.9129107506627321        12.880367773748979        16.396966073392985     
 H      12.997493255777378        9.5891502283206904        36.758609262905253     
 H      6.3104244521717119        10.692376971844185        18.510971197939629     
 H      8.0935708729869464        6.4171303586215549        9.2190048253040668     
 H      12.964281060030395        9.6474998317529064        30.935536977668644     
 H      6.9145295869481247        9.8030810217431359        13.041512353025404     
 H      8.5577719640301080        12.809584860341021        15.372703905443762     
 H      8.8123567354207513        6.1690176783729340        17.388588704456811     
 H      11.934471467221799        8.5733095034120730        24.428449969099319     
 H      6.2896696962825329        10.795042599919661        7.1837628667249005     
 H      9.0385261393781029        6.0537828247544221        3.5132267201571237     
 H      9.2626396714079284        6.0091388975574933        10.938866711676507     
 H      11.723063965924892        12.200215327595842        5.3665456963234934     
 H      9.3143879200827477        6.0365587236966265        5.0791992585586208     
 H      9.6644322551516488        12.959192462784090        9.9962436002302706     
 H      6.0846587982480598        10.046633914929421        36.514379203146909     
 H      12.643307368741457        8.0684559440539019        17.892899934611776     
 H      6.2189348061772423        10.629193755022047        24.365724831050287     
 H      12.239782341091662        7.3679754845220859        30.618573335693668     
 H      8.0159474976602745        6.3608238476331911        33.731795513497076     
 H      8.4825182192272379        6.1623956127580772        6.0077298081544193     
 H      7.0704694722388179        9.4459541054023628        36.617315116180222     
 H      8.3525683200743543        7.3323997899342377        38.697737304487397     
 H      6.0866661620361588        10.075979512132438        29.188281870509329     
 H      12.016041089262091        9.0205309813690757        17.903589596379426     
 H      6.1287688954316435        8.5603220193293943        23.450133482128525     
 H      12.782813962525067        8.3062062662429987        34.905174666082303     
 H      11.103301570550588        8.8693171293832211        13.426666064918365     
 H      8.7190989289104053        6.1247362482614811        34.653931547676386     
 H      7.0643790800729374        9.3175633868368486        19.399590637304314     
 H      12.378176520107797        7.5510135057187862        7.1781293712292511     
 H      11.344547829800153        12.434754299854195        9.4788857824660600     
 H      10.540947665471387        12.754768937525522        39.534773082577480     
 H      12.854351769133746        9.0669135010018245        31.843824354454263     
 H      9.8258420068241623        12.954063910690673        38.684197121168722     
 H      9.9392488011167970        12.882738432653632       0.32445111128175208     
 H      10.204659360106042        12.821701072522956        20.494995975741222     
 H      11.855724790444430        8.4318821895364078        18.741893524039625     
 H      6.2062892952601683        8.5624102372548982        19.393783550338267     
 H      12.169589115305092        8.9456806954281465        36.781609174512155     
 H      10.084621498125159        12.103242247978768        26.990799877598398     
 H      12.373198434822326        7.5030775878911458        18.705859321614842     
 H      6.8854680929651879        9.8654235347525869        18.533835245495322     
 H      9.5462779936384212        6.8843699586389295        27.281650415987134     
 H      11.819898715835032        8.4884440432762531        35.841840233660299     
 H      11.578172447309839        12.312642395718967        22.039163872388375     
 H      9.3206234556202556        6.0057763288454646        16.489607462186513     
 H      7.0078707600822936        10.491551951785466        19.341233127478471     
 H      12.030205966990563        11.695508499707771        4.4440428101162652     
 H      6.5067168316168971        11.153319423968922        25.197974063488275     
 H      10.229215866659844        11.958316556226952        32.906342194682921     
 H      9.8638336478633306        6.0968452413193344        15.534421842276977     
 H      11.976274107763572        8.7586503557311399        29.984022511206625     
 H      12.528632871794217        7.7524102732916154        24.318444857216626     
 H      8.6171652903960450        6.2358367661729650       0.29366826010554808     
 H      10.770264261897685        11.751432312414114        39.430208258676466     
 H      12.996671868041471        9.5284722573284153        2.3767626052044086     
 H      8.6400838037287357        6.2089489395658299        15.687780535384418     
 H      6.2500878478693531        10.753706593514494        29.998713093374800     
 H      10.409016181740522        12.835608462944268        26.390170834180410     
 H      6.0961346751462671        9.9357162614715104        23.434781934541949     
 H      12.006015477187358        9.2192992648133636        23.649496467704839     
 H      6.7069767233094728        11.291712190069966        6.4146028363795198     
 H      7.0964757913442913        11.482154654357487        30.075116253587360     
 H      9.7643269075723413        12.959791223893442        15.739169209212683     
 H      6.8707126904319136        10.038057935549134        1.5038327195731434     
 H      6.4177091335840384        10.937935868698506        1.4826749524602019     
 H      8.8227455038632474        6.9054133476050943        26.494307696569297     
 H      10.066872769449860        12.160438297223072        21.341086358386438     
 H      7.0503975883699761        10.330529062114808        24.932169763933594     
 H      9.3249569663870862        6.0722469547758227        22.362309370727775     
 H      10.289009152612534        12.005687577754752        15.868986923514253     
 H      6.0861495500448450        10.244722655266678        6.3045679592424300     
 H      9.6290237834713626        12.141903031473458        27.992639507287269     
 H      12.029991841671617        8.5430715111697548        1.4617411314004940     
 H      8.4710070614546513        6.2944302339879865        38.746966083209891     
 H      6.4573586676795056        10.864784226013755        23.286679422005317     
 H      12.916752762084407        8.8459150205734165        35.956589034857551     
 H      12.895998717324238        8.7647076909073824        18.681411421036280     
 H      9.2991269365943729        6.9047479679070172        4.3997999413441899     
 H      12.954651347140738        9.5560261621326870        8.1706403871350819     
 H      12.065418756657836        9.1539700986040131        13.629449773674118     
 H      10.051457203666864        12.034118451054459        10.047700960807326     
 H      12.897970708552556        8.6814834181158673        29.119540118546322     
 H      10.781787344713536        11.853013414897706        5.2855118925079640     
 H      9.1097995500919051        6.0270155744266001        20.499556158581971     
 H      11.094699438785716        12.594701877978340        21.206417970885191     
 H      6.8377749164451522        9.9460623096896210        29.926905829510417     
 H      10.733200054180468        12.724761821952784        34.658645475345359     
 H      8.3152886550593212        7.0749862328413045        27.365074539314822     
 H      8.7830583815251444        7.0101171522370738        33.691237435022998     
 H      6.0963913965730665        10.301892983137392        11.989084089529879     
 H      6.0173001509871442        9.5130271694615249        12.696292926692776     
 H      11.041256956100312        12.533082056163886        6.1219467902460112     
 H      12.181071439492852        9.2133878243913987        25.178474221581098     
 H      9.7948605499181269        12.044981399392267        39.614907675078037     
 H      12.944406855919686        9.4416220024331032        19.431347607577361     
 H      12.726923790913297        8.2645480530864308        12.073596037465887     
 H      11.101119677582020        12.591746904821782        27.296258648362201     
 H      8.7262565284212705        6.9777776586925482        39.615953951969416     
 H      10.040345164598104        6.0583571916637231        4.2317898954953970     
 H      10.359233236527107        12.810712375648675        32.149096562041301     
 H      9.1284589763949189        6.1608633809635753        37.855596588372620     
 H      10.628367184248029        11.703329716193181        22.232885676807786     
 H      8.8985892146033532        12.931365170204391        27.922049916780935     
 H      12.963872942033802        9.9136484130297990        24.958188304870852     
 H      9.4068239017919364        6.8643057164559123        32.883871106185182     
 H      6.1539504646252716        8.7745587107629799        31.021869606456931     
 H      11.731315682352770        8.1028324034750234        13.732434558139067     
 H      9.5917893910252374        12.126822748758679        33.679525781360567     
 H      10.256959071532762        11.998615884427158        38.604477139250726     
 H      10.615195967209381        11.916112799862635        27.910333986824355     
 H      10.150534260802891        6.0713689627881031        27.145868508538619     
 H      12.673700400654790        8.1806950482159682        6.4499345574115852     
 H      9.0712373292739592        7.7817897406785761        27.320350847095860     
 H      11.100417780172972        12.560804117236165        38.725385561287204     
 H      7.9901112213318939        6.4722148893495461        37.798102810585284     
 H      6.0249312422072094        9.5417751832832725        7.0135459511876004     
 H      12.761694024912234        10.261518045375448        30.135876919655022     
 H      6.3058274215948442        10.697873317550785        31.693675211816402     
 H      12.003478709279644        7.0643672344173538        7.9860499641922251     
 H      9.6026077780163384        12.124827041242721        16.588762632134973     
 H      7.0238291128008514        10.416900039727221        7.9713894660406490     
 H      9.0132681145353963        12.946812514989794        33.669080666178722     
 H      6.0501005425325625        10.032399239001911        13.747150278900278     
 H      6.0920948138882780        10.081600083445405        17.748220295408156     
