         282

 H      8.0360724981292897        6.1040146207907675        2.8527444033830731     
 H      7.6862236064068252        6.0179011565336991        15.484055331069891     
 H      6.2180149836995477        6.7701976275479812        29.471403886031339     
 H      8.4066388578506324        8.6662159529657750        12.008233854270093     
 H      7.5337732479395898        6.9669403694239431        8.9460075622371011     
 H      6.4889073818497724        6.4129823082932305        15.999959896523817     
 H      6.4353472056600740        6.4609105777212790        17.076999504328352     
 H      7.4490707609996489        6.0051751956589259        35.234591781486841     
 H      7.6421253521033243        8.9869418382640358        4.1343059564275215     
 H      7.2218272763546274        8.9345531087142245        12.466288837785404     
 H      8.9792324239194574        7.5326347211561195        38.276165517324110     
 H      6.7796047675255249        6.1860910291681703        21.128826270083998     
 H      6.0663887442824169        7.8908589409263987        34.481128325876952     
 H      8.5923720353456616        6.4890049246702537        20.532117014042843     
 H      7.1358562941763815        6.0866482055431712        29.877340055091931     
 H      8.9783106210565933        7.4999813194772909        30.036049803102728     
 H      7.9401293222674685        7.2020773656015056        20.058928657971606     
 H      8.8573463057426842        7.2714617750360331        7.9056520685312490     
 H      8.9806248441484993        7.4217041842164022        11.948956420673793     
 H      7.5450437502251644        7.8724895897286160        7.6317952513830347     
 H      7.5150063685685096        8.9610193519035519        7.4456078569631758     
 H      6.1580807537521611        8.0969828495949923        21.205910409688176     
 H      7.7297629804123646        6.0328631859237971        16.493592753434370     
 H      7.0046139380139385        6.1146925354177206        28.868768298940505     
 H      6.8025392154546518        6.2680601247361780        25.406371054224170     
 H      7.5016395174552928        8.9808559404784312        7.3856424566382328     
 H      8.9275569875936576        7.7758682355727764        7.0344152262240796     
 H      6.3226628168081342        8.4220958924554967        3.5918976197430998     
 H      6.7196233217211052        8.7552152428812295        38.631032188034283     
 H      7.4425711453528383        6.0308442972079064        12.472992702143452     
 H      6.3666678000215313        6.5444470094107103        3.6517649751951686     
 H      7.6849717684760339        6.0572959464487619        20.640337712858638     
 H      8.9825646097713445        7.6493188064847430       0.26146214426710784     
 H      6.0836307002980288        7.8750700115477654        29.375870453613565     
 H      8.6860460232487391        8.3867608421956987        30.493918983477485     
 H      8.6365578433614321        6.5230334380066219        26.128753335379134     
 H      7.0965147929816137        7.1113840351531339        34.758247929099191     
 H      8.5819655819657044        8.5349451373188874        8.9790448733164645     
 H      6.0063352658151885        7.5247388965330986        37.584771967655072     
 H      6.1014933424639590        6.9874639025305338        21.073534918209667     
 H      7.4881296408412696        8.9793870820456743        30.171964530859675     
 H      8.7326334644123769        8.3214746578741199        21.606988463548390     
 H      7.6366174937773454        7.9744047972182850        20.756393906002391     
 H      6.9739605180247164        7.4558896365033434        16.480460631897159     
 H      7.5327938896195041        6.0083912467957417        7.4484946703526065     
 H      7.6271027099464694        6.0282414850381878        15.484194207788049     
 H      6.4286573130285438        6.4535804380382000        22.042459931923347     
 H      7.5106388552937826        6.0199290641054830        8.4648462227062300     
 H      6.3705338345841191        8.4469890377796499        9.0591515633337636     
 H      8.9695734607870126        7.3018525644178656        29.037412690599282     
 H      8.9880084590966298        7.3855424544117207        31.075760333557277     
 H      7.5359007552745281        8.9993130960575272        39.264809977718919     
 H      6.6525250900573187        6.2746454068685118        7.9598974296962952     
 H      8.5029268824329023        6.4544813391501759        8.3746002260238743     
 H      7.5793978407924971        6.0692294670213389        20.527790371520904     
 H      6.2177761381324519        8.1381955240694275        25.243221543588859     
 H      6.9202658958919772        6.1638727155923423        34.391952420258484     
 H      7.5207162318317877        7.9313882910562521        7.6183447551742267     
 H      6.0070790579065232        7.5263969237048842        35.441873109350105     
 H      6.0228875520260114        7.4892541025038790        11.998408794688400     
 H      7.4663268946394608        6.9707980164623642        33.829680773215621     
 H      6.0262789125190217        7.7785051374338154        2.8482261976525729     
 H      6.3455268921179186        8.4008147689559358        12.500876706173729     
 H      6.9548639878552638        7.3347518802079401        12.444399578263285     
 H      6.6478374659467931        6.2699950933577711        7.9561231832962243     
 H      7.5575766419106465        6.0019903943024087        8.4636491034985291     
 H      7.5362090439922662        8.5867870214468915        9.3956182328066351     
 H      7.4854336353979161        8.0529598157318709        35.052308793355053     
 H      8.9562779412075226        7.2920322634830512        25.518897142349960     
 H      6.9301766407577041        7.6643210269560660        8.3927116567409321     
 H      7.2824765269117089        8.9733190123855202        12.469447065140136     
 H      7.5656317703694240        8.9664934965990462        3.1135718647669335     
 H      7.7103772468966554        8.9783434114634915        8.4835718749242641     
 H      6.3444306722495165        8.3188416458653318        7.3267926193034851     
 H      7.4093310756124700        6.1334873225845250        11.474732078240473     
 H      7.5398472105166139        6.0006303962200720        21.765558873137319     
 H      6.9497917216946030        6.1086702437650651        26.403965410777033     
 H      8.0969029259553960        7.6339282726743241        8.4492241394329071     
 H      7.5100869175877509        6.0132023606344571        3.7259972623595714     
 H      7.4838692868927144        8.9938267449023552        29.140446607819058     
 H      6.3420102830178688        8.4232709539168695        12.510666907874091     
 H      7.6635773003459180        6.0253261013808181        39.377828962108502     
 H      7.1391634659553453        7.8433813218881818        4.2860877123324190     
 H      8.2813386816823282        8.6341597894827995        24.041535823997524     
 H      8.9910369909369177        7.4240865994163059        12.953219390247275     
 H      6.4992145333476614        6.4305411365217227        35.302448932016290     
 H      7.0058841011305164        7.7219033443580090        39.340871152095048     
 H      7.0463028912997485        7.5314111277418228        38.359808114792799     
 H      8.5956103450538635        6.4830822676051350        31.334748625305256     
 H      8.4820690670622056        6.3731017940555343        19.472088126152045     
 H      8.8031437186156136        8.2310213467830327        25.938810153354250     
 H      8.9871049259036440        7.5114209969051995        8.9499106036017206     
 H      8.9697205110042066        7.4207924939071468        15.958130045639988     
 H      8.4067563460102548        8.6757569241539763        7.0555434070439578     
 H      8.9229900380725855        7.7085097071442741        2.9042573579980937     
 H      8.7437317787848414        8.2355102745164039        34.087795680155182     
 H      8.4674960511685526        8.6165122260509079        39.548765603026361     
 H      6.1522870428977559        6.9594336345048262        31.300238909307307     
 H      7.0359322375388702        8.9099890232824546        25.612768499776706     
 H      6.0909153735878396        7.0457564655893830        21.039054826477166     
 H      6.5346935419145087        8.6255741614027848        2.6280738811274462     
 H      8.9676757670723912        7.3155807046963490        17.974231102365476     
 H      6.4397459280199127        6.4770978923388149        33.558926682764856     
 H      8.9842783217675368        7.4895707429114688        30.047979338686368     
 H      6.7751181786297510        6.1905471564201910        27.730159287042639     
 H      8.9450827322624740        7.1001488661564363        34.454298100464477     
 H      8.1032255004573557        6.1411099326522809        30.403210279474479     
 H      8.9751085760902942        7.7128286065652549        2.8925189720000195     
 H      8.7827035991326703        6.7419696012118271        3.1663298138045315     
 H      6.0625607540454478        7.8955604489439706        34.493813524055263     
 H      8.0978126923719937        7.5309406457881805        4.3865945784215015     
 H      7.3953958309070416        8.9960452323836080        34.636270642293972     
 H      6.0658968332902621        7.1014764150804313        25.083564867083613     
 H      7.4802819874705344        6.0011212267764193        33.562469974287318     
 H      8.4960705141341943        6.4279133335670773        8.3691660856305177     
 H      6.9295952699757688        6.2459366641597258        38.706224172441281     
 H      8.3357902005128341        8.6680573254315600        34.900747550996549     
 H      8.7484932921803509        8.3088520414421474        16.870748460834342     
 H      8.4345717465463963        6.3552540054375850        4.0220182116203036     
 H      8.4966031758015585        6.3803946582734135        18.449607662191134     
 H      6.2236546558308952        7.5539824535347311        4.8448067578757019     
 H      8.4653411942045338        6.4078221447007442        39.840454206106287     
 H      6.3918032181576452        8.4697788978721320        37.703216908484933     
 H      8.5040081037004729        7.3952488690653784        21.078322594959019     
 H      8.1838204034031730        6.1671011906590865        30.478964959022477     
 H      8.5077851005281939        6.5914130991808646        15.452183846931897     
 H      8.5203539180614030        6.4953489906002977        9.3860039833960727     
 H      6.0126747739229192        7.4535271634576974        33.583048380130727     
 H      7.7627138408634169        8.9643778499568807        24.857773234318341     
 H      8.3525544134615455        6.2893645006014696        12.911007485205120     
 H      8.6119812555774473        8.5034213748774174        38.522334416418552     
 H      6.4686364858868606        6.5234109477547282        33.557748334221834     
 H      7.9231498693124571        7.5802232987503109        1.8263256151740397E-002
 H      6.0081977048615292        7.3957696151571852        30.258061559616710     
 H      6.8517593810474233        7.4047259239697301        20.487043415736093     
 H      8.4656293138898935        6.3673426769884838        34.962891336404539     
 H      7.6039129351454235        8.9946312318154327        4.1474657350288879     
 H      8.7019013796241502        8.2850619580866578        17.979041253173687     
 H      7.1647983563333248        8.9088965840698844        13.477962619918898     
 H      8.9914572966320279        7.5017662949799266        3.8850973267060627     
 H      7.5288745889248991        6.0060863121108321        17.752828362049648     
 H      6.0193355630598884        7.5067574576331992        7.8613916729581339     
 H      6.7537343054140058        8.7474219118257075        24.621005413908325     
 H      7.4704000113399331        8.0663145860034859        12.945518273199623     
 H      8.9675471665813635        7.4553080732885535        20.058944134608943     
 H      7.5372110451775365        8.0665682542378701        2.5524809562746142     
 H      8.0449801954516094        7.4008696163341705        24.870732536455879     
 H      6.4361046982107766        6.5484296842406104        14.964701746255699     
 H      7.5019454524078277        6.0338988905003053        15.515379528127506     
 H      7.5959554076323412        8.9612772020403533        16.468502917492746     
 H      8.3995705678922388        8.5449228888075641        39.548604442790001     
 H      7.1786010888648937        6.1072699651048135        29.889873501367571     
 H      8.4520305832767999        8.6519118282594665        20.701518867202509     
 H      6.0764114467713988        7.4068426311524176        16.024280842471100     
 H      8.6186333630104119        6.5014434140140551        16.445571283921218     
 H      6.8121028166629900        8.6847034172094855        38.610203830344048     
 H      8.4254739137154377        6.3336508519735686        17.430081958137389     
 H      6.6386922109312945        8.6999513528156509        29.622189526401630     
 H      7.7815818652772419        6.0284451303664186        25.825279951638844     
 H      6.9311737263834603        7.2558634400617548        15.494306178431138     
 H      6.0008590778188804        7.4569797386718548        13.985225768635956     
 H      7.4925571052827475        6.1707290246629496        35.219561123610404     
 H      8.9787237515727281        7.4300967762950512        19.029451772071305     
 H      7.1130234231131642        8.9449671436339351        36.683502329557932     
 H      6.0078629874777789        7.5016084031561121        3.8552318499220131     
 H      8.4412785402464525        8.6547170594553773        29.556519513935427     
 H      6.1395840010415128        6.8727573657881189        34.474736998480381     
 H      8.6833707880561857        6.5791824141192707        29.702573483939275     
 H      6.0769195243571152        7.0714237941561153        21.048948515959555     
 H      6.0799349536147096        7.8371972430474202        29.346149712975741     
 H      6.7301888884882466        8.7601835762095508        8.1677105183180707     
 H      7.5252814278570721        8.9973560554669767        2.1112298375877061     
 H      8.6335780990541569        8.4596693754117460        38.531999110808144     
 H      6.9774774172174912        7.4493412110623654        29.697170430690083     
 H      6.0380027390105244        7.2746431868670305        12.986215588863532     
 H      6.9343032161653575        7.4701203127854834        25.450227364843855     
 H      8.9489901210685812        7.2768125336362495        7.9486173281004255     
 H      7.9455886516842051        6.0866625428262404        29.240933426550303     
 H      7.4483678117259116        7.9728093411748171        34.044103236489669     
 H      6.1924164654653877        6.8018232898992927        29.462023818507724     
 H      8.5041413241207291        6.4071426863626666        25.139850508591074     
 H      6.0049235940761152        7.4620126377859055        17.055080481275592     
 H      8.9811200318287305        7.3023962083866145        16.958952384623384     
 H      8.4575214261304605        6.3585774261942749        21.516402758176813     
 H      8.6690107342916214        6.5801433303528230        24.136875451689924     
 H      8.9622365383935119        7.3931705080960279        31.104066560525521     
 H      7.0344767394415921        8.8793151481660679        31.082193781524577     
 H      7.4771478763789601        8.9776862371323141        30.153087065078104     
 H      7.5078332481048662        8.4919238082410100       0.13280302263474950     
 H      6.1918825881000155        6.8245404523958380        26.036766653456681     
 H      8.0112882457780579        8.9014567571507595        17.387367944376280     
 H      7.6451046322720693        6.8879223019604821        7.9489048290200790     
 H      8.4445791900746379        8.6524115458130542       0.55770459588192256     
 H      8.9530521716181344        7.7318568133699799        39.260477231805140     
 H      6.5796333215110412        8.6632277940877263        34.056739371950265     
 H      6.8648075491882574        8.8566705458376980        21.271293768684743     
 H      6.4024529227095091        6.4864812552426310        30.430516810900492     
 H      6.8829952072252416        7.5549489683379480        3.3428997675611472     
 H      7.4582878391298459        6.0088353452794703        35.231517067635068     
 H      6.4301052251957547        6.4591511925405243        13.927614205464282     
 H      8.4996032792813061        8.6116685178386252        4.5688501437124875     
 H      8.9314450941898453        7.8674719895556162        35.101053047539850     
 H      6.0581451453031940        7.8019874344215516        38.586207087125132     
 H      8.9152208759797169        7.3143941447996275        25.527967101150221     
 H      8.4872495392620859        6.4199682875797279        25.138161598335163     
 H      8.9700313228291098        7.3736650171537343        26.535260828374263     
 H      7.4781646383695302        7.0211006776271940        13.252552882331599     
 H      7.2302108731174899        6.0547543419371177        14.513038356112437     
 H      7.7504619620282984        6.9953612418165223        3.2598348006120692     
 H      6.4224952493522336        8.4791682183445420        11.431332195236269     
 H      8.7697755715197641        6.7783808598483510        38.962765271922905     
 H      6.0139317738370250        7.4193354044876605        27.210917700968562     
 H      6.5588601143234300        6.3718621195868135        12.930621677331528     
 H      6.6638722296785504        8.7252240628380378        4.5072783694221874     
 H      6.5802805822753445        8.6671993543518546        34.055162694469544     
 H      8.8021693109205312        8.2213667811804712        25.935373686017634     
 H      7.3279249107965674        8.9503427927057295        35.700597189352770     
 H      8.1100606743206001        7.4996459579965800        17.487590681292311     
 H      7.0370461430369238        8.9229331830988627        25.578205624486781     
 H      8.6470778843781115        8.4628774918181247        24.961234280475988     
 H      8.6141451007631922        8.3851182889277265        7.9899463099618826     
 H      8.4145141804517749        6.3323295047481025        4.0268492384712626     
 H      7.3696831065061046        6.0380694181413439        13.513821475920240     
 H      7.9533219758118774        7.5221938196998579        38.991254783927772     
 H      6.3914445024370581        6.5762405478423780        8.9246867206678484     
 H      7.5307738794480352        8.9944324272651190        20.505584496538361     
 H      7.5436885359184922        6.9639925807435192        21.096451478050319     
 H      7.5040253424407402        8.9990783612897740        5.1525042756639889     
 H      6.9695194816799537        7.5203733139439022        35.730180685191158     
 H      6.6679080790743601        8.6633461080267740        29.619227380803782     
 H      7.4293118683640849        6.9302764584505940        30.438413340489063     
 H      6.0208470596001264        7.2924101785098525        28.343490723828570     
 H      6.4598711294095343        6.5863621829866377        11.948599865243475     
 H      6.0648079422590602        7.4168197733653987        21.997200337966330     
 H      8.9794961087334180        7.3585095932403446        21.976623792111965     
 H      6.0182633524206706        7.5651075775271304        39.621023410021856     
 H      8.9230673834168392        7.7081116438338508        2.8915663619064742     
 H      7.1720066709736496        6.0447794165355830        29.884988120303010     
 H      6.4350724994094266        8.5165512235750782        39.580511905894483     
 H      8.4086740380484191        6.3458540676667603        11.888111059174237     
 H      6.1550493418030667        6.8516681412454359        38.933231771307639     
 H      8.9730403040934270        7.2829781994742628        16.968817983678747     
 H      6.7606293228882359        8.7431320182949630        24.618161920068083     
 H      8.7732371188010401        8.2757020450717036        7.9784750159371631     
 H      7.7815049286470002        7.9689255265113763        3.5202861177179452     
 H      6.2732149180921182        8.3593045029146360        13.550082357250895     
 H      7.9954156934380807        7.4805297200129148        29.820732767487499     
 H      8.6619035368675910        8.4415836707092655        24.952037941893014     
 H      6.4860556813176444        6.4066089327321389        24.465378692036182     
 H      8.0813265562467151        7.4809584088426417        16.482416776094809     
 H      7.8076315049020533        7.0328662714713346        25.789937674070220     
 H      8.9695849143506567        7.7970684008905113       0.32766905873776531     
 H      6.0763121000639941        7.9307607422095527        26.216490562636146     
 H      7.5063515447851072        6.8028077500160489        17.097524899634276     
 H      8.9551946777247462        7.7429091562277144        4.8699935823728220     
 H      7.2421135665575145        6.0350981071318186        30.901609754663021     
 H      8.6601785764000425        8.3395027201992988        7.9946645108815604     
 H      6.4703772187913628        8.5799599554013568        11.451245396415189     
 H      7.8923739087946023        8.9307571849313181        21.530076105794979     
 H      6.4015794057041209        6.5158934478257411        20.238708806632363     
 H      6.0120899961299754        7.4843248137686755        15.025248686372334     
 H      7.4964567599831913        8.9569241478436279        33.640709780077117     
 H      7.0093541300121727        8.8986684479894365        22.327926163670639     
 H      8.6878815793358424        8.4132757609981699        3.5877938205102486     
 H      8.0454114732322353        8.8944629666425730        25.865874137160944     
 H      8.9702848221407994        7.2217929998621768        33.446347374154463     
 H      7.5108334692956662        6.0197169970837443        19.529116786059848     
 H      6.3952245739397400        6.4895928217532095        30.430498358095676     
 H      6.5575794119855244        8.5818275040445773        35.067769871193555     
 H      7.7188121545599033        8.9773801155735562        38.275196179878023     
 H      8.4533286563472334        6.3531627449167249        33.936449064935765     
 H      8.1186290243861290        7.4330085928406993        18.490151948291530     
 H      6.2931285344195382        8.3558119741321271        30.509751329774751     
 H      6.4688440372409399        6.4194950069705587        35.312390554390021     
 H      8.9748237023103652        7.4689142026016571        24.507048773418628     
 H      6.1755301683496038        8.1555390452479291        36.233508063354520     
 H      8.9673549116686289        7.6465881747542852        1.8891702376189763     
 H      6.0031819340314705        7.5264291401429571        8.8985855825778319     
 H      7.5513303259749209        7.9305530905405499        7.6059521580195781     
 H      8.4965481921481754        8.5743659650857573        2.6049359187455545     
 H      7.4814436804020108        8.9817712822652549        11.484069602493683     
 H      7.6051931201818643        6.0417596893062848        24.783535904815245     
