         235

 H      7.7447299524224560        6.1445760247125918        21.994537714255411     
 H      7.8572418216482989        10.857883491811505       0.83826236990281855     
 H      7.8282934913687203        6.1121782239219291        20.813677808574802     
 H      10.661588670668012        9.6764337442419883        23.281288495408507     
 H      9.8637423582800601        9.7109101197064742        22.161075519428334     
 H      9.7629587394937491        7.2569945587162703        38.826998904486238     
 H      8.4048093791643730        6.0079871801670963        26.288824768397365     
 H      10.771621457338366        9.4878365605575556        5.7243816575826569     
 H      8.6892586222590005        10.907588604186937        33.409070334893002     
 H      10.164134054933992        10.134982629876516        32.208892955263408     
 H      6.2720874347745950        9.5845025788518647       0.91234270566980824     
 H      8.6130781680990918        10.979120212768823        6.1308590925683202     
 H      10.906882882815774        8.9995225426005980        29.356854650093215     
 H      10.367616353007168        9.6245317369739816        29.926649196696296     
 H      9.7944976288883154        9.9932273074655331        26.600873073734498     
 H      10.871406332816676        9.2838071541964027        32.788486610157847     
 H      10.915331848575375        8.8595551850510947        23.948299827387718     
 H      6.0991829684366472        7.8136927758037693        5.7038180537092558     
 H      8.6746539059995253        10.983510640802379        15.370629671756500     
 H      7.9253958236155562        6.0755406316048308        7.6071691004840067     
 H      10.956669872316317        8.5425942218178026        21.904902920522094     
 H      6.5291201707361095        6.9920863304694203        32.072700133351816     
 H      10.724343869512797        7.4986269947363215        3.3059658196648489     
 H      6.0192851000448950        8.5285863797841639       0.72765592032323700     
 H      10.787981205467517        9.1819883749945070        24.942414151677109     
 H      6.8656458287401447        7.5037399529110180        28.730446498818896     
 H      10.126594246870614        9.5951241856150169        15.942556207148259     
 H      10.622485078388012        7.3201819648985245       0.91015673767210381     
 H      10.917923987242188        8.9954185000980385        16.876623586376088     
 H      9.2143913842997538        6.1471069333298090        37.328298663582352     
 H      10.622037312231235        9.5199043301071935        18.932811307820472     
 H      10.131128118622380        6.6880159279031890        36.940084748485560     
 H      10.882059348357831        9.2361360326863640        4.4824702315083398     
 H      8.6818364314703977        10.976460465239018        19.625257770406542     
 H      6.5408574629857030        7.7599458218244095        29.830900499868786     
 H      10.979753968583314        8.3759365084375279        2.6111770876202431     
 H      10.907108574251698        8.2705500329145245       0.56226666512895029     
 H      6.7469771115433188        10.227428410587024        38.021038305421612     
 H      10.928731801327890        8.4847387316884699        39.173835204849503     
 H      7.6081872967987874        6.1865428962937798        18.536115100755293     
 H      6.1214699625343716        8.0196134154666634        16.519868171907245     
 H      7.7574038306260125        10.826398587323146        37.316142572104013     
 H      10.239923416105427        10.245141930628749        17.043573722849548     
 H      6.3935580189762824        7.5989689726119645        24.245299041396237     
 H      6.0473948331871252        8.0572196481840770        10.759534838075139     
 H      6.8080788634072809        6.7823768495367860        24.740080268411770     
 H      10.949943892552090        8.5000391213908326        30.248169015086102     
 H      6.3863025773530664        7.6517038887899540        33.840223382554989     
 H      6.3417214066277552        7.5599463497637123        26.657279844659147     
 H      8.4329086937123723        6.0135957266355158        34.337728811520776     
 H      8.7910552795533423        10.950052713664562        10.212405472372076     
 H      10.840625506638332        7.6513388131145668        38.614307918548803     
 H      10.694989503134380        9.3777474698455183        10.311974538836031     
 H      9.8724402952499073        10.025149493716647        24.475498526741212     
 H      8.4923084580784813        6.0368980633451397        27.302154045842464     
 H      6.8002082804965287        7.0040854906944316        5.3660923230040636     
 H      6.1354973931504153        7.7429497138710310        14.026341190779737     
 H      9.3125938224908733        6.1951012045292888        2.0764877289327255     
 H      8.2104071600453139        6.0365282977017465        25.163918842206240     
 H      6.6258229836936762        6.9288980735942527        13.565674229855011     
 H      6.0114074056589430        8.5019744703296904        36.694720244531517     
 H      9.2779701002200756        10.768290001922246        29.410575385363416     
 H      6.5324356246215389        7.5242519169665725        10.047104053690443     
 H      10.780026827818064        9.4707701761489886        9.2219516676197824     
 H      9.4044855474187177        10.821813545502820        7.8710186449560613     
 H      6.5575488832525615        7.6744582096294538        27.726332877519649     
 H      9.6934051926862441        9.6784557229098169        21.091813657239143     
 H      9.1922398466217512        10.878067158008502        25.004030888504591     
 H      7.7573972834654157        10.866231864003318        39.824221657987145     
 H      10.969003217670533        8.3414138349611804        36.878257882941178     
 H      7.1400290399352508        10.108971578804150        2.3539731849647576     
 H      7.6893326354381122        10.773544087762703        38.415260768789956     
 H      7.2824863477208082        6.5245485078718959        11.659962077701326     
 H      10.323762325716654        10.159222300094674        28.849846488453196     
 H      9.6694165918806867        10.521954433027924        19.322010510828395     
 H      10.959963514088276        8.3433817424561934        1.5856873290200117     
 H      7.9526663875441344        6.0655068469771320        15.091345270677444     
 H      8.5736419530552297        10.993806055018700        26.582389185162040     
 H      10.985679722165466        8.5660152851710514        9.7681250095294132     
 H      10.987007842531574        8.5775156431956159        20.876903504770571     
 H      9.2584088561436069        10.831741487231712        23.736835944718315     
 H      6.0041985551308583        8.4632296748695595        28.343889360516556     
 H      9.3705827397624812        10.708546556110440        26.029537379914153     
 H      9.3050725607151197        10.769944854036591        27.295536990042802     
 H      10.717102849327238        7.4640964480207499        36.364561732053573     
 H      7.4260981283812848        6.5111590966419035        13.034542724190038     
 H      9.1795386260634242        10.783511860911583        16.296457746989880     
 H      10.106069181711266        6.6447120820791081        1.4784680150917990     
 H      7.6148564139737154        6.1840425782969195        4.6245001715498342     
 H      6.9989819080297426        10.489200046529156        1.3187631737564576     
 H      6.1220188242822671        7.8267837980834045        12.985440077180039     
 H      10.979636998935788        8.7391225892402886        15.892541698551600     
 H      8.5985628418597404        10.983515861963843        5.0036354814041912     
 H      6.2574392303014195        9.5569450510228062        37.366499123759070     
 H      7.7858000464340504        6.1504450027043935        23.036450916599104     
 H      9.2254430709001625        10.876582294973341        30.558998591648461     
 H      9.4905972952774693        10.579167273880174        18.205674682316133     
 H      9.8496229924879266        7.4332428739370053        37.826463462819810     
 H      7.5423909679648116        6.5305393395877811        28.161971347398879     
 H      10.864803104229946        9.2677065494170616        27.264666399444582     
 H      7.5252180825929802        6.3559134749035282        27.040457442931835     
 H      10.538674079368970        9.5897497597908572        7.8183511942254604     
 H      9.4191955289319402        10.643496993180561        6.6312997811085079     
 H      6.2289015513983816        9.4790105359461023        2.0354319408382016     
 H      6.1079877860101011        7.9050532886572986        15.248805566814607     
 H      6.9302990550246557        10.332774638218106        36.979810828873489     
 H      10.759303108504263        7.4502890451161949        2.0678024406993996     
 H      8.4186591717656185        6.0040701641303018        28.319958680554457     
 H      8.3647543748793414        6.0794742321584083        13.381390459663143     
 H      7.5501811897058229        6.3384365298382699        14.061079595350760     
 H      6.3033544467187284        9.3023963243497167        38.441548756175614     
 H      10.817158350365823        7.5858866999139218        37.577925033294562     
 H      6.3650430324689466        7.2087684745050087        8.7087544063268290     
 H      7.1179762302777201        10.013198451062213       0.34608613450443032     
 H      7.2567419799745547        7.0171293363645040        19.002540512056996     
 H      8.8345324808033006        10.973865935870363        34.558479404828972     
 H      6.2224104959344224        9.4990344679202394        36.356634668709624     
 H      10.905735416392035        9.1556303486212514        25.986961907274754     
 H      6.0069957574861057        8.5989923554634569        37.726447145052276     
 H      9.1882795475849566        10.901405559998578        28.338968652792921     
 H      7.4604923948966988        6.6446655866052922        31.712803800406132     
 H      7.5582511910490391        6.3619858722473523        9.3228378040508932     
 H      8.4729060312961462        6.0026969402777368        18.048628349901296     
 H      8.2604389702703358        6.0709573857472661        6.2864956496111111     
 H      9.4237950910887420        6.1959897264236847        36.229579387972272     
 H      8.9873208147466315        6.0940914909893964        38.719326561378963     
 H      9.9933937194589433        10.075588379995075        25.489417281588263     
 H      9.3728239845335022        10.656365471469806        31.770845526665237     
 H      6.2007901547216440        7.7271364855756079        32.749279342551645     
 H      10.688434803846944        9.4865544417601075        21.558053195027238     
 H      10.163142243117226        10.361776303669235        7.2935168377445372     
 H      7.1792250889312808        6.4674539751808409        26.098107733793764     
 H      9.5361944275058708        10.737538435376523        32.765049551692414     
 H      10.388478963651153        10.089241491901021        33.198453413992070     
 H      8.5775532802661481        10.995706776674607        32.386065923492801     
 H      6.7764763974063271        7.1956076477279050        14.603983697463425     
 H      7.5797681525027771        6.2538317995248738        17.455132828084416     
 H      8.5689593077577513        10.985399774436686        13.330728278935359     
 H      7.5932252774575950        6.2249262365750075        30.214431102230517     
 H      9.6511514883537100        10.634077723495960        33.763817491835574     
 H      6.3028769674756635        9.6568765977227837        3.1336138415493267     
 H      10.885017557811928        9.1544832763333055        28.264921178981385     
 H      8.1137279873030312        6.0344909355142278        12.186898435912894     
 H      7.4354805965448669        6.2531742252046802        5.6428665011045229     
 H      6.0227410423595158        8.4793317631797951        23.806186953374297     
 H      10.917716503122236        8.8751213736880086        11.874704558967151     
 H      6.1247981517164760        7.8076579415108780        17.545178429666681     
 H      7.7930108945304744        6.1058529196939357        10.765260268073414     
 H      10.565280823358703        9.7923830615350198        19.957739519517091     
 H      9.5584384297027896        10.495609418803594        13.018399028402120     
 H      6.0898512227438388        7.9228471045540845        19.816294418738380     
 H      6.5469463254657843        6.9453925071227838        16.912916784452385     
 H      10.966842607637274        8.8918925342488127        31.712275735920706     
 H      10.945272917085726        8.6155703040990446        22.931505863905929     
 H      6.9902308881007302        7.1923474676325299        7.3070239680306619     
 H      8.4501439503637155        6.0644654305491246        5.2181591083265868     
 H      7.5862051570095641        10.816666002322156        36.321991546453233     
 H      6.6585620129179537        7.0172027856512678        15.897974668736046     
 H      6.2235896721717943        7.6005557475420131        23.250257977973064     
 H      7.3730567781460792        6.2734929604129430        6.7417381288475333     
 H      10.057661716015398        6.5753452207967706       0.35555682141004702     
 H      9.8274961421970666        6.4437788658933730        38.068553994131420     
 H      6.7824895390551942        10.292259527755283        35.968444535148244     
 H      7.6116886903279815        6.9111019110735441        32.695236260233933     
 H      6.8180891768564074        7.3670994664728875        11.336275539477196     
 H      8.9466514710696909        10.911196931560628        9.0341617356589605     
 H      10.865554719572728        9.2589999016435787        13.756288378821225     
 H      7.4738002369736725        6.2433265694919848        29.203223345795227     
 H      10.987619511271950        8.7388482226828597        14.884661199401750     
 H      8.2138941292153742        6.0238453055039276        32.366110394884714     
 H      10.896015332937127        8.5430988366112999        8.7379689277232924     
 H      7.5831523408264134        7.1139659541009248        6.1998189402456108     
 H      10.736985037833637        9.5196603660593926        6.7907131045325482     
 H      6.6538968982124223        6.9480727180973361        22.603682034342203     
 H      6.6252732011966771        6.8519507293934483        33.082629248471143     
 H      9.9221746298176061        10.005753516358061        27.766678490865552     
 H      6.0255391601061357        8.3951646667719491        24.858854506092143     
 H      9.3463919077530964        10.840300237874006        22.632480137088535     
 H      9.2217158866725679        6.1151674505211755       0.95821141684803146     
 H      10.248032619948759        6.7198103798498137        2.8115268557327702     
 H      6.7666992333932408        7.0092266287995395        12.462410439080788     
 H      7.7548371286477247        6.2549055232284880        19.735455649981891     
 H      10.886338413167937        9.2232097499616028        33.894511174529327     
 H      8.5362451907101260        10.986726235437784        14.334465016739768     
 H      8.4922005118467006        6.0101076652125158        19.061176633402326     
 H      7.8062484284150253        10.797237177945867        1.9055362182737872     
 H      10.964298870415696        8.4913984242111660        37.987083795388621     
 H      9.5846240148476927        10.363415589258544        14.148941617605814     
 H      8.7693109232821502        10.973378242674418        11.310975900933055     
 H      7.8451537857990736        6.1558159367502769        24.168136141324538     
 H      8.5134497252567538        10.917015313246127        18.457820367925994     
 H      6.1546802559024334        7.9461910476519702        21.859236047294541     
 H      7.1931132803906941        6.4590531167818277        8.2807583009255801     
 H      9.7018913619657479        10.577652157358923        11.971322337685155     
 H      7.8915533308544425        6.1002327848349571        16.387422880419091     
 H      10.705197376545410        9.3512275710292183        12.734295363620596     
 H      6.0632068549700380        8.5140899854824514        1.7358715547389383     
 H      10.403938834839186        9.6040337110487748        14.833170159584281     
 H      10.286757276279364        10.151390506884772        5.1053866331103332     
 H      6.0885317257572265        7.8950088651017198        31.695921281912607     
 H      8.4696986884555017        6.0807601712173920        33.332280478786274     
 H      10.239594457640505        10.294878894659686        6.1374601390203773     
 H      6.7411881222852470        6.7394092891647466        34.129948133977479     
 H      6.9312061092473920        6.7972140455261814        20.254249453856342     
 H      10.882743084974157        9.1946565779778044        17.883563693139227     
 H      8.6037945139369150        10.988623215999503        20.653610062719558     
 H      6.1003577813943721        7.8282842974522415        20.836547807500246     
 H      6.3322949400791941        7.3475102099070657        30.824565318114008     
 H      6.1361676161246788        7.8230395636207790        6.7507481109049028     
 H      6.1265550510017022        7.8859658785331312        7.9308435297966700     
 H      6.0578317833228121        8.4495131890583597        22.738005097223482     
 H      8.5685053794175676        10.996278265610131        7.3022376617016667     
 H      6.1885693936248822        7.5496476328841302        18.562211685869645     
 H      6.0988989571261119        8.6628669522435668        2.7408635314866840     
 H      8.7045906891206695        10.960308142842582        17.354955763908187     
 H      9.5158232014608242        10.719261875592471        5.5398312258139910     
 H      6.0003908726746342        8.4611320913681602        29.362268715679608     
 H      6.0651762159382816        8.1144863433611327        9.1795782332994200     
 H      9.0437140797537143        6.0786000345358122        39.750914982037131     
 H      10.993957580675058        8.5508935775308501        10.861611510058188     
 H      6.5426284022024568        6.9664042310156216        6.3512565153138123     
 H      6.0232899585433497        8.4726963352581706        30.575771149463467     
 H      7.0107802724301411        6.7755709061379221        23.653877005250116     
 H      9.3432565236784288        10.637902513211552        21.490945391228355     
 H      7.4862366372780347        6.2875026650721511        33.621504557486254     
 H      7.1165853746575216        9.5078975776028916        1.5331298553535693     
 H      6.1106035700162451        7.7655222217630069        11.948733754804246     
 H      6.1563176277011387        8.8529706017644543        39.703440857696847     
 H      8.6244268423590675        10.993695235044038        12.330290677757731     
 H      6.7662490876855941        6.7905474736646561        18.009388124054723     
 H      10.972268807741468        8.6824722557548437        7.7420782054670516     
 H      9.5589638879428662        10.749637984301659        20.290265797006125     
 H      10.444741397614514        10.023761505848929        34.326215951019684     
 H      7.3762456225070521        10.673604904184256        3.1787238290018740     
 H      10.097426802653326        9.6151656326420785        11.810420457112942     
