          25

 H      6.0387687479610728        6.7258462085162538        32.862657934903105     
 H      7.5924366033445407        7.1848559429608168        27.196651107839664     
 H      7.0687105940203221        6.2349201463960719        7.6258172611421067     
 H      6.6939650794531635        6.2092285047364912        22.321474943038243     
 H      6.2306036164617939        7.3917918882434126        3.7663636010677268     
 H      7.9109556488803667        6.7705865114214214        7.3639560279839706     
 H      6.6140732691081521        7.9059264388596970        2.4982789082264834     
 H      6.9826130127363610        6.1199022324806851        23.307413658564116     
 H      6.0055218534934420        7.0281825757730179        12.531416203886332     
 H      6.9641325893143495        7.8620996596226842        37.153117613215301     
 H      7.9885428138360206        7.0262839713964027        28.241454619353554     
 H      6.9017813205451644        6.1857061181523294        32.969254761123594     
 H      6.7251730924203876        7.4975608231838784        13.085266674989468     
 H      6.4591907311016126        7.0355910718598773        38.439947917055264     
 H      7.0024186583749266        7.9917228186657079        26.977751550239990     
 H      6.7092159800398052        6.0873580714546964        31.927276214387351     
 H      6.6289769405064192        7.8955432004190254        12.102541076768622     
 H      6.9772682698617192        6.0735483292242263        16.987226889140473     
 H      6.9795535888740075        7.0043906706547823        2.9863067661817779     
 H      6.1976378648078532        6.7957896894860799        17.173506370559437     
 H      6.1094417021072438        7.0898253307121717        37.338292830492726     
 H      7.7719504668418660        6.5875520524097011        8.4090273000873825     
 H      6.5961452700870185        6.7795224703330650        18.260210257591091     
 H      6.0205449022149038        6.9363796720075968        31.826373636845645     
 H      6.2394846301487750        6.9411939516415968        22.954457351304015     
