         157

 H      7.5404909785266767        7.0511388712684804        23.149175545925040     
 H      8.5569115814976726        6.0391729902543529        36.916941041260522     
 H      7.8640861304671166        10.834359434248492        20.704662621179423     
 H      9.2281502990641027        6.1375545621376677        35.899504062298504     
 H      10.797859888361293        9.4561694680873742        31.843299336923536     
 H      9.3215566618672554        6.7723949592110761        36.858364563423891     
 H      10.751426190421345        7.4671171787860633        1.0639833580094973     
 H      6.4729371229908486        9.9480521954526910        38.861882719220610     
 H      6.0438563519402662        8.7213297575226960        38.554624836257254     
 H      10.388447320714258        6.9859619632929082        11.564118028927584     
 H      10.985606156304655        8.5282846867362494        29.982351101154833     
 H      7.9324996736085360        10.925733148560422        8.9596955115265846     
 H      6.0539850998663951        8.5464954003077001        8.9520697959372164     
 H      7.5338962769137732        9.8035968407329026        14.382719469285837     
 H      10.155792793165705        7.0884309749033365        18.067006113289931     
 H      10.902308780715254        7.8121106826820865        10.991270131522882     
 H      10.859609164038346        8.2330234543005361        36.931202750070412     
 H      10.715126445218411        9.6260794258500795        23.478262563693296     
 H      9.1148910320246266        6.9353809323273916        11.947998125218593     
 H      10.897648249027643        8.1566190154726126        1.9838071486396343     
 H      8.2813882446909339        6.3224956690398804        27.780089986055614     
 H      7.8764623879250211        6.1024668992375179        28.945628558276592     
 H      9.7234979447543388        6.3500414001650514        18.618212545073757     
 H      7.4618266689786736        9.6925974632426026        34.075972588488995     
 H      7.9275493759733839        10.811536306603122        34.333188905175753     
 H      8.9655019433717733        6.0439721408668481        32.857518912071434     
 H      10.082439986604964        6.7368720478410324        35.919931030581658     
 H      10.910065922013075        9.0703044768769221        30.897329135689620     
 H      9.2067803171389766        10.861182125729311        29.631099216111515     
 H      6.7194093561133723        6.8283206318360667        22.587574402720215     
 H      6.8653800613894100        9.1218099372134045        4.2062413528156615     
 H      8.7654542904573614        6.0349518705583245        18.181087799390074     
 H      8.3518356467523027        10.974768164307777        19.835784214969856     
 H      6.3144525608464166        7.4614859174706369        28.797549948602395     
 H      7.3103520068095360        7.4308253729035227        28.209360670377276     
 H      6.5460014713985784        9.9857943465653296        4.9223204439336721     
 H      6.7725838836178864        10.139623359557632        3.9003844615926542     
 H      10.063188203281358        6.6043949590041438        1.0915301550861032     
 H      6.8999687362898969        9.0297555932330695        39.220738269636790     
 H      7.7286743497758010        6.1285074624416627        31.224328981420765     
 H      6.8598332637602208        6.6182808509341262        29.067629912381300     
 H      8.6452833875797683        6.0290864684963781        7.1385088509027925     
 H      9.1148727741916424        10.922719490282935        24.672329178657627     
 H      10.439861248463480        6.9367158666679636        7.0949635226769221     
 H      7.0174959055472739        10.498637219366078        13.871145540549431     
 H      10.613554791797586        9.7858123553242287        25.683689001843515     
 H      7.9474262669934612        6.1486898505269254        22.902522673619533     
 H      7.3649476037065353        10.696914642480222        14.800835637682200     
 H      6.8751784325642680        9.0534463330699300        14.536751899308253     
 H      8.3821122907978136        6.0104751940462089        31.985513726724164     
 H      10.801201058342322        7.7940809094004138        17.716498482485875     
 H      9.0484778758541680        6.1223539509276961        1.0577800763597514     
 H      8.5320054775365044        6.2482831066905797        16.880932578819614     
 H      6.0635494403972983        8.7456712197404123        13.929160442239692     
 H      8.4955301954905487        10.979374022860656        3.5275899443759968     
 H      6.0148535280810762        8.4591222947025333        29.275859229493260     
 H      9.9384907024057974        10.507048175704767        25.319292843379035     
 H      10.452277114916225        7.0008728856558253        37.014127467458380     
 H      6.5010246485574763        9.2479284177657952        34.866653254298157     
 H      6.3382459650510645        9.7395138302665583        13.821405279857519     
 H      6.2562112102060725        9.5992978192633593        8.9128797782550997     
 H      7.4104293684086020        6.2506773506986919        23.743039687032606     
 H      6.9037854483787724        10.372393665455970        39.690396633439050     
 H      6.3697773989082922        9.7693651242763444        19.656465990563053     
 H      6.0560707156820914        8.5159442752724459        4.0472171883040229     
 H      10.964133607971394        8.4786730478734711       0.92654890960459013     
 H      6.7487271290972970        10.263512621768957        18.846716607212112     
 H      9.2740425401170690        7.1100333056744978        17.120318182341016     
 H      6.1392890556479269        9.1197702577891882        33.362971302833209     
 H      10.786780369159052        7.7886109425424284        7.6300426242937265     
 H      6.2352421983339630        7.7242146328668175        24.310916915188741     
 H      10.917410462817852        8.0099243274585756        20.932978155912341     
 H      7.1409759233749774        9.1275454205615993        9.1732730114793846     
 H      6.5035936775344672        9.9949268411564258        33.010602613500126     
 H      9.3644462561807700        6.8565527958455803        1.8678935446900915     
 H      10.845290930700203        9.3335358124582459        24.712348369908216     
 H      9.3728409168519775        7.0188265940726451        6.5759861710906042     
 H      10.281355576572814        6.7755125163855396        16.948986589394647     
 H      7.1042661348578235        10.549274971104166        33.587940725117789     
 H      9.5527473137975409        6.2509505373584719        16.363948982905857     
 H      8.3836732879940890        10.981904424833521        9.8565742660263549     
 H      7.7347724129926876        9.8312108120135520        4.1556101041891891     
 H      10.735336723301234        7.4548711900883022        20.046475998188132     
 H      7.4241728174000379        9.7578678417037530        19.638386356958080     
 H      6.5616925019259540        10.027022487355506        14.836942794985303     
 H      9.8935405418058959        10.119197989927923        24.253237988264068     
 H      10.200128753632789        7.8476419554275401        6.7574353151922679     
 H      7.0270951544048526        10.511391524810579        20.195266969067045     
 H      8.7073974437994046        6.0216658737036770        11.399985482363473     
 H      8.3376400940923823        10.943450943949816        38.473337625368366     
 H      6.0723417007091953        8.5081671268684911        34.346306748863157     
 H      7.4047877116699405        6.3428281921642293        22.023330425162857     
 H      8.5916768238783163        6.0180188632800649        6.1267243457947353     
 H      9.8240294476222161        9.4888518178501595        30.603983784195638     
 H      7.3896632441682524        10.738295310410216        9.8293294420049637     
 H      10.974949588884186        8.4838649998040605        35.731934825031097     
 H      10.338933648576811        6.9870168228152574        5.9973986659327183     
 H      6.0427467077478232        8.9039279016747344        19.222795877127492     
 H      7.4992079161917493        10.772186633673750        3.6303282653157964     
 H      8.3703234479127175        10.989613706736865        14.825358732663112     
 H      6.6431329726275052        7.7786505102022607        23.126226679240062     
 H      8.4440932648903910        10.981690389997620        18.834046567594587     
 H      8.8233553577696906        10.773574263752401        25.644713962738550     
 H      6.2491931043806268        9.4868084947969713        39.969180789012484     
 H      7.3318535332811186        10.708823367414027        38.699656555292265     
 H      7.5200301293321870        9.8115378745788071        39.120339209826035     
 H      9.9239421656107503        6.4794910743501459        12.324063155727545     
 H      6.0345141261673936        8.8273727994452198        15.055733715877285     
 H      8.4987264511684977        6.0219748498331365        23.736609726435159     
 H      7.0280195738417364        10.365884748405557        34.722213687940112     
 H      6.4660851883848691        9.8476954475861103        34.046287440087454     
 H      8.7131074736998428        10.917634762080731        26.705887351240147     
 H      10.917219120282994        7.9005191759659734        5.9865690144775332     
 H      6.2025239040111169        9.3875585308836733        3.5059474003682078     
 H      10.175907005314224        7.8799257634211983        11.972669507774876     
 H      6.1504624645497232        9.0397592789578844        4.9317543410117599     
 H      8.6302899492713614        6.0114910690334433        12.402758315604675     
 H      10.106977576987861        10.273159758855927        29.669730983581033     
 H      9.6254723469419901        9.5706288552608996        25.620259834303621     
 H      10.961076633978807        8.4906555847408374        6.9159722482335360     
 H      10.916898764301541        8.8219203470453813        25.858751317807975     
 H      10.428748762188215        6.9622515861703818        1.9898218478144025     
 H      6.5290362931706589        7.2961961547964727        29.812402223485009     
 H      8.0516019883894927        10.822684423641871        39.448943244070605     
 H      10.382574739729730        10.102648766039207        31.173736030360583     
 H      9.6858851917816864        6.3281952630025335        11.227407423525852     
 H      9.8217368111706804        7.6896222497171767        36.620210792100174     
 H      7.2892281847040090        10.626287062612342        4.6311058938840919     
 H      10.978858344071613        8.3896441670336106        12.819310050499180     
 H      9.9772471517237094        7.8153144293689225        16.887517472836016     
 H      8.2568206044403762        10.956079392515424        4.9176185264059118     
 H      10.978377530986130        8.4899422577243406        11.753037708665085     
 H      8.0148364139243888        10.863639967861273        13.899125905982316     
 H      7.2695041245503127        6.3647485329474849        28.002610326014651     
 H      9.6629561462757430        6.3065904673176085        7.2181880798473879     
 H      10.698430792363789        7.6027194569175700        36.116051871429619     
 H      6.3448560267598877        8.9951437943963501        9.8758694674188057     
 H      7.5208476096042363        10.789800918720751        19.299738782245427     
 H      6.6729182841807049        9.9493786609104546        9.7858896574635850     
 H      9.9728344607668369        6.5367596324237853        34.718967053109566     
 H      9.7410606128100170        10.616631376701505        30.566135570337600     
 H      6.0068991124080124        8.3178106050933103        28.282874503681469     
 H      8.5426027333919379        6.0101578643723954        1.9286154412952909     
 H      6.3224663406167210        7.4979965089476988        27.696593258660471     
 H      9.5626297842386165        6.2463473681845079        17.586006291879205     
 H      9.9011299962841299        7.7025951267669299        1.5471611223841670     
 H      7.8284238381844693        9.9316269038965217        9.3810657016365742     
 H      10.649363474362287        7.2422646743617909        12.607003338514032     
 H      10.970934484145536        8.3815832458397352        16.842443663421175     
 H      10.995775200159846        8.5955988885747594        21.797357271083694     
 H      9.5850039367480004        6.3029343714239152        5.9067433493065602     
 H      7.0087496636131617        10.412713600072591        8.9552959192707835     
 H      6.1084248433285726        8.4682641414583859        23.629522926244668     
 H      6.0109205500537684        8.5808140590625968        39.553647399248526     
 H      10.653196539929640        9.4739215601151336        30.018035374865509     
 H      6.6091329243260306        6.9120852405322148        23.710295647598699     
 H      10.623557007715558        7.1827367536929296        35.205407352191479     
