         169

 H      4.0608052544932542        4.0600460897588810        3.9318002795528746     
 H      3.1429046562319840        5.7434749014281063        29.149449641560491     
 H      4.9631422270847301        6.2160463664522574        25.560266224388794     
 H      7.9503002070612405        9.6690630322874789        3.3961924091760096     
 H      5.6332502468256855        3.2840330296805504        14.793021526105173     
 H      4.7966779210895512        6.6663492172526970        23.456899998749446     
 H      6.9330463499671753        5.0274021717476520        3.3518413545734709     
 H      4.9864990242682401        5.8390266077327437        8.6711607677501039     
 H      5.6298272704615417        6.9394145741363156        4.2173536729535108     
 H      8.0134262819692825        6.3889392066335553        1.4562300638809091     
 H      9.3466491851668909        4.5068112183525768        36.080574781504531     
 H      7.8940449577297116        9.6935370711563458        15.202800910582434     
 H      7.8971162698162187        7.6538927164398247        3.1250152790561545     
 H      7.9442836230915841        4.5575377493595379        25.286801453602504     
 H      8.7426234074347402        9.1721626614417300        37.187679965203934     
 H      4.5580329845857133        9.3610276980836620        17.823558763592445     
 H      9.8307088971518031        5.5490658720846708        4.3982890701909065     
 H      6.3209835238268086        5.5673571719025805        31.090365483799708     
 H      4.1201657508767990        8.4199376631481737        31.066736957481929     
 H      9.7857678402236452        6.7628803088182448        18.463152736234111     
 H      4.2341477938036052        8.6595456681525249        22.192054868327034     
 H      3.8911385167585619        4.4798652124226352        1.6506692924789257     
 H      4.7394088158769128        9.3253152175598135        9.3645001412382740     
 H      9.8662630233808102        7.0062763727432156        12.068815900247815     
 H      3.8521451110318412        8.6347251012746877        5.0629939313411860     
 H      3.4006725245190088        4.9317854980981153        37.275691671122907     
 H      9.7876027730757862        6.6178655933604427        31.458445070217500     
 H      9.5747982821757436        7.8600567181025394        11.325272754263462     
 H      9.7504577814123952        5.6761417016967064        18.716245918047004     
 H      5.0015881689048571        7.2928567290909374        6.2787375109714088     
 H      7.1923960186730751        9.8518440138629213        21.867519439376299     
 H      4.2119941292286542        9.0123475600658214        35.046379139913185     
 H      8.0675793532765621        3.5127647339788597        23.580476352153365     
 H      8.2641862096699406        3.8346919832292539        29.381168783800113     
 H      7.4496686388052282        7.7691233874543562        38.335251417356119     
 H      9.7536126619594903        7.6601620782430313        4.2781050904132778     
 H      6.1593826998586767        9.9039466084083827        35.149966279619321     
 H      6.7495648738958129        8.9244266183277769        9.4033197960232613     
 H      3.5544895861812771        7.8704646904511089        22.386684549399394     
 H      8.0427697223694370        7.3208034487752460        21.611558696084646     
 H      7.7662403920537129        3.2597387203526815        8.4507249549538468     
 H      5.1370733813905964        5.3923790174250472        38.344496125633178     
 H      8.1630017508702082        6.6563194261424190        14.865704111475962     
 H      3.0207979691646147        6.4718336382550845        39.066333155317416     
 H      4.8015964475235968        6.8093884450527593        1.3083825476257971E-002
 H      3.1424887577492298        6.1789383187057059        24.560998218984182     
 H      8.0495913883784240        9.4558223698369694        33.281149047841531     
 H      3.0669292979194820        6.5662959064731989        5.2298082366742156     
 H      8.5387542220335639        3.8795846118018309        35.746708128321707     
 H      6.4814962633053339        9.6613362940006589        39.162652425197720     
 H      8.2617203986918639        3.5906782428968542        37.843205160672078     
 H      7.8049661997015098        9.5685348746921619        1.2362924353758509     
 H      9.8828346933204134        5.6518498285723258        14.594141029480298     
 H      3.3114078119457173        7.7158046144729591        11.310371419572967     
 H      3.3289663527676834        5.2434626138805065        24.873712997913497     
 H      6.6012764358653229        9.9110469047832339        17.377920935258629     
 H      5.6153260875244246        4.9204082950496124        33.839200606095218     
 H      5.8938026491562372        8.1293393535450900        6.2447453217213766     
 H      4.9314297037997132        6.8459023099593050        8.3597239103818470     
 H      9.2911495673174542        8.3419952729040414        37.309852015358260     
 H      6.4023778519502725        3.0211347032242273        27.788279774568391     
 H      4.3255816185512126        4.0742419885458787        16.573442856320785     
 H      5.6892440861211169        5.1524819087306115        17.859784895817000     
 H      9.9196986651011887        6.8305979788191706        33.443637011283506     
 H      5.3937709630596329        9.7974650976070308        19.724026083519281     
 H      3.4955670325341686        4.9442371808680887        18.850559700335261     
 H      9.4426128607191107        8.3486276721760309        1.7042021425639702     
 H      9.8536540978727860        6.4027950649627146        21.327377977231606     
 H      6.5229392455829256        9.9502797124099960        4.8734110496793628     
 H      5.0183984716379344        7.6287721752746434        36.266263861014558     
 H      6.4296941072494906        9.9728151066101898        11.347143961422505     
 H      6.0007815316723940        9.9544418578753096        24.081791199140277     
 H      9.7950816486335857        5.3546787405963432        21.207522388852539     
 H      8.4716850324262065        9.3685091097521447        10.412737366802574     
 H      3.3385433467140846        7.8054575228864076        9.2748502592196349     
 H      9.7952265937672305        7.5702890074355942        14.022639094904310     
 H      5.0154703411006709        9.6523798256783504        23.933922131108531     
 H      5.5286722463468996        9.7976153211593875        17.622539544804880     
 H      9.1987591032773537        8.6813144027658478        17.963021345520868     
 H      6.5103683662902831        5.7191695118405157        26.893464162654485     
 H      6.5971752188188786        5.7469654952576921        24.148534989847604     
 H      7.4095641676512018        3.1983674442896848        29.728681303521597     
 H      6.2725029008101432        4.9773897692691520        15.851778419415073     
 H      7.8161087814294348        9.6680294788406478        26.447876961631032     
 H      9.7599408243194148        6.0163328101620239        6.8560848120727682     
 H      4.0078511245859634        8.7988114613571362        2.8548836796950683     
 H      8.0869125240783202        6.5257674601187325        30.391953683532602     
 H      9.5066608533694588        4.7598695656955137        16.925721593980249     
 H      5.0854002292449252        9.6939995765802482        7.3537003555100675     
 H      5.4359946841828224        6.5611448890169353        10.709341552616717     
 H      4.7148571398653489        3.5041583927478399        35.010666568832441     
 H      9.9217027783502889        6.0730885318942507        12.630526473355543     
 H      3.3836788591195424        8.0219255181234832        37.571167862293109     
 H      5.8472276100442775        5.0671362435478908       0.71854160627832442     
 H      8.5172255824365415        3.7842458285356093        2.3331370637443691     
 H      4.3603109146467638        3.9904675066380224        21.135162126691462     
 H      9.2386021751214109        4.3223013263165804        27.677697959305767     
 H      5.1392244336414237        5.8249585708410665       0.31820921813995712     
 H      8.5233297348222088        9.2882099750366152        17.251522383458784     
 H      4.8506113532685893        4.5739186149455628        29.645003223762679     
 H      4.3503277822497166        9.1920877467187214        39.036797224711052     
 H      3.1928994225051226        6.8579033539687968        7.3326147198071450     
 H      4.9422492336235724        6.2683922587642664        4.5549389196830310     
 H      9.2127883543481470        4.4206416611494994        21.331355453594981     
 H      3.7349865690405850        8.6447313366431580        11.663827820195078     
 H      8.1440753050167416        6.2171287317477253        11.251435812867788     
 H      4.3605893426614051        3.9632362498291602        10.239048838768733     
 H      7.5078894389918522        5.3706676329118448        34.743624037964203     
 H      9.0206950580964307        8.8308289981950097        35.219801695880015     
 H      7.8695064651573174        3.6646000607872034        10.472716197584221     
 H      4.8213737076026986        3.4717032936702661        4.3200836446178323     
 H      3.9801618044515914        4.5002671896525053        14.376488729830980     
 H      4.6549342210432929        3.6429190646416063        14.407669136315748     
 H      5.8639461874052268        3.1488442867540591        4.2546726753493420     
 H      7.2058504977207383        3.0870071176150975        12.332670774465237     
 H      5.8056623438793133        9.7378672795621775        2.9866176148631340     
 H      6.1836587726201593        3.0892594158497113        6.3346136802325965     
 H      8.0779954842876478        7.1452066633381150        28.210188112199720     
 H      5.6092488936962308        5.1807187150572354        22.281139517333067     
 H      7.5710234247907531        7.4323699322207970        19.100078025067482     
 H      7.6597782897785640        3.2009611245580207        2.3825276488440821     
 H      7.3902048549221036        3.6125234556862527        39.678649804490476     
 H      9.8073386653048686        5.5149061472908176        31.789996637532482     
 H      8.4783325266332952        4.9954283929863674        27.618656330973405     
 H      7.7587928965222233        5.3968064751414442        1.3554343184571223     
 H      7.9510501779316671        3.4083426806142310        4.4812322164765126     
 H      3.3343208245858693        7.5458962005823675        5.1383022965883729     
 H      4.1527666557089651        4.1204528506361999        18.769784485221574     
 H      6.5144300655284058        8.1437580547894335        27.178939454089573     
 H      3.2328962609980003        5.3063086294995134        1.3199515285070886     
 H      6.3424935352317231        8.0708020020760856        20.861577209648793     
 H      8.5285630082047739        3.7170754279505527        25.688601439268236     
 H      6.9065962762803483        8.0027540928068959        32.105078613318767     
 H      6.3909223230104306        4.9701103205423633        34.606249731186182     
 H      3.2862690020131406        7.6913322904907311        33.123005281634725     
 H      6.2573954567650150        4.9193985850792030        5.2425396518397775     
 H      3.6211596391934915        8.3590096710118296        39.538550195286106     
 H      4.9386897312732660        6.1156541001820983        16.926125575001713     
 H      9.1504528087177910        8.3934249627705046        14.105995947121199     
 H      4.4175538216047485        9.2515552036230275        19.968678633495117     
 H      3.5290226849584547        4.8057121310659134        31.469384949923100     
 H      6.0677765178312226        9.9436555216067326        7.3972145355177492     
 H      9.8744268005142768        6.5734437923109734        8.8338408959418153     
 H      5.5595662178829430        9.8601529660994629        30.682940547385435     
 H      5.9308201815528543        4.9259300667870249        24.286689740622240     
 H      7.6683419663861532        5.3514614257685169        36.839071986335007     
 H      5.0281506754690595        8.5703956329499196        1.0534610444888139     
 H      6.1630694341832299        4.9951076663309255        13.796054766713572     
 H      5.6152786114676703        3.1837038976261609        35.368396128959816     
 H      9.7374126979899192        6.6234208774749153        4.1718926472461755     
 H      7.9180951666249957        3.3601318631961301        19.080443508510690     
 H      7.5232278623922078        9.7555670743977991        39.047612407758010     
 H      3.2205689710386731        7.6884410409183594        26.667385103578212     
 H      3.3604380236640612        7.8594880589820537        3.1525006063139247     
 H      9.1155955468127665        4.2292552571358444        38.516027657111422     
 H      6.0931910284431279        9.8987440843400663        21.951475287245255     
 H      5.9370701927455247        7.9541305116760403        24.984733446514074     
 H      6.4017330295899244        3.1439145986350097        39.673539289023800     
 H      3.5236184633772996        4.7719501415914536        33.821629069282110     
 H      3.0372678266941397        6.0613002544688097        35.317908682637764     
 H      9.8955638408935602        7.2928644210352997        25.035325560482999     
 H      5.7287995509942213        3.0899316742911851        30.824703286537389     
 H      3.9474594514344821        8.4774933715579337        33.125140014085446     
 H      3.1521051644937201        5.7291220967998457        9.7818784302226565     
 H      3.1369739634106035        5.7869255265296973        22.469729177145343     
 H      5.9041445795653633        6.9704942335855389        2.0203576153607212     
 H      4.9149929473667751        9.5141985659311974        21.911541786359432     
 H      3.0978398361610280        5.7407142845409354        31.203187658376066     
 H      8.0262978856654588        5.1232851837289655        6.3639862520579964     
