         141

 H      2.3828049289813320        3.2114838594812971        38.364642531835436     
 H      3.7958671782228790        3.8184859432179410        18.792548879594094     
 H      5.1952568387946023        3.6277518356861971        19.843460958402591     
 H      3.8123592545965810        3.7275259749630911        36.180479399973663     
 H      2.4427220255592963        4.1241955249185382        17.908587368976686     
 H      2.4201240983073773        3.0818613972452922        25.243277906329009     
 H      3.7833078401862354        3.7543399670107211        34.444082510947574     
 H      3.3473957138459771        5.1617573683298454        7.0727587566614876     
 H      3.0289711834778710        5.0140703885204863        25.475431477509073     
 H      3.4664537168036182        2.3295192148063242        7.2690970510755948     
 H      2.3980135147452017        3.9148339459200647        36.678302479932434     
 H      5.1548789932764825        4.0192055172746475        17.748280674973582     
 H      2.6859171378686475        4.7875739113251807        37.988814732124929     
 H      4.7361560565503815        2.6381538518057299        8.2781380729684724     
 H      2.2738178220063046        3.5477610671812481        11.820960873836039     
 H      3.6494878070136942        3.7812316206926040        15.359611949454841     
 H      4.7025176110961411        2.6734353558690760        30.482900753833686     
 H      5.2344172522941088        3.7199386382572124        31.691270083058622     
 H      4.2140184271072343        2.3503056391126362        35.561266621349908     
 H      2.5721903937293336        3.1927827536052118        19.522744086356099     
 H      2.3535875360782610        3.2090427029557045        13.318112779614500     
 H      5.1969836542890837        3.5511270767843706        3.2220660232607865     
 H      3.7323229515047625        3.7381419142897783        26.038136557359120     
 H      2.3271041425385612        3.6954647007237993       0.84344073721636015     
 H      2.9695802686707244        5.0299669388437138        30.441576198269505     
 H      4.4242943464796429        4.8801187784887494        16.292543765594328     
 H      4.0699788264560279        5.1627097250951008        17.829130212803310     
 H      2.7831671284272042        4.7838572190923179        35.054476912106630     
 H      3.9724063550963078        2.2897692137138832        12.837718714367787     
 H      3.9712541629586506        2.2812075379075889        3.3770786054924962     
 H      5.2349290277723171        3.8309628215923568        5.0617325909437749     
 H      3.5944356948944653        3.9293175707038324        7.9443913698978568     
 H      5.1958250518672777        3.5306390790994042        35.278070761788769     
 H      2.3744607714333608        4.0072160702491155        4.0146908993571815     
 H      3.8356630229151421        3.6691470498685677        27.549896182031596     
 H      2.8895489259734979        4.9251241977944575        16.665233646908661     
 H      4.0037895682867619        3.9298849948277850        10.691185759612019     
 H      3.7961900784162830        3.7641537833816479        31.036094225586741     
 H      5.1553756079188036        3.5589145979300438        12.965966365362643     
 H      4.7345016620850906        4.8357263563485908        38.639302122444981     
 H      2.3990905153360944        3.3582864000700510        31.563513575379531     
 H      3.7251316847906013        3.7174265112720497        12.184867811677995     
 H      3.3369210947459877        2.3237613096068617        21.873313560431342     
 H      5.1407104636657408        3.9042624557379977        21.915097627395518     
 H      3.1169485103039634        2.5633058194714229        33.391380880719659     
 H      2.7971278121320435        4.8764651520370421        31.987030535280599     
 H      4.5821166872518715        2.5540108585514911        37.085288426324603     
 H      4.9437490430862541        3.2633803219039748        28.812515172471681     
 H      2.6681410753472528        4.5841996842230159        10.401042385581858     
 H      3.3843975751282311        5.1900083109199313        33.440649395312349     
 H      3.0413527136865333        2.4957229988020453        26.644891151818403     
 H      2.3506112299227055        4.0793039221619845        5.6196998098661144     
 H      3.6826732347740068        3.8765501960135249        20.426225798301761     
 H      3.1768541570617992        2.6441835796897593        8.7205864257002172     
 H      2.7080320967140366        4.7163653351302326        1.9177098447565786     
 H      2.9479955222599030        4.8384560918694932        28.163820741532749     
 H      2.3318841938656547        4.0692819375442078        14.638469707600473     
 H      4.7005116761437797        4.8552718890768345        1.6750380909839855     
 H      4.9460262705336024        4.6012311570155173        11.721238578474875     
 H      4.3785945290281498        2.4226009798838515        5.1571296111718992     
 H      3.7953621483535391        3.7809742054686710        2.6137612550702789     
 H      2.9942448134935007        2.5110254016069860        36.868933274948041     
 H      5.1881188262877407        3.3269832332333347        16.342835470044413     
 H      2.6261975654400587        4.6605665782151133        39.600132597948146     
 H      4.2821173379587556        2.3979890204462180        9.9454815792851878     
 H      2.8707840848763126        2.5720972737744288        39.844120121197804     
 H      5.1408971494739060        3.6096183304592522        9.5647078722377685     
 H      3.6629307228392363        3.6761367682796240        37.682046787947641     
 H      2.4518724004620469        3.4183543329964312        6.9823115446053787     
 H      3.2120756158495145        2.7705445724133861        28.758017159945403     
 H      4.3480330488970402        5.1093335147186325        35.330821652971309     
 H      4.2099661582691290        5.1688444247039929        9.8248676331321736     
 H      3.8729649662673427        3.7075246659253094        1.1040113574503772     
 H      5.0283774246723709        4.1801734455726178        37.124873888214637     
 H      4.8015559482045846        2.8404559192269478        1.9399583780070246     
 H      3.7465251286404717        5.1172509550504870        26.920763553518551     
 H      5.1005211503054504        4.2560731586385110        14.552725852658583     
 H      2.9520634000483144        2.5157143042795393        17.927369249245469     
 H      3.9883453559927831        5.0683190299885563        23.578404590696938     
 H      4.8240676704986960        4.6491949924945200        33.434905417222858     
 H      3.0655157352522435        2.4571135883158286        30.503030619548479     
 H      3.8370957688197693        2.5311284731517820        31.951902068197544     
 H      3.9887238417720829        2.2702725473257339        16.307302519560821     
 H      4.3748995423284471        2.4035813905117704       0.21423725151495790     
 H      3.7293146194760758        4.1097228930221261        29.310254203560014     
 H      4.6622096030143281        2.5635873882677682        18.067984064705815     
 H      2.3195473583705399        3.9991976629064627        26.904663558139323     
 H      3.9333405105089025        5.0455591901982819       0.32068998083419892     
 H      4.3440722575122788        5.0725144916861433        13.296924546999660     
 H      3.2776826987592678        5.0078347365503619        3.3324069138896997     
 H      2.5600507262639325        2.9240356364149052        16.350337437678014     
 H      2.4244523914808913        4.3814929755936243        24.253085166552864     
 H      3.8802420521248409        5.1555734291266946        36.920879848053936     
 H      3.3385996893163341        5.1527560010271367        11.657427382715337     
 H      4.5093810845883944        2.6074787716144168        11.423242665352033     
 H      3.8283138700511077        5.1383697840749303        21.731830194453799     
 H      3.8960264962873468        3.5425267780323413        4.2063837156579851     
 H      2.3275564971740170        3.3184761976480042        2.5520157067647955     
 H      2.5871981975051312        4.6859775980167973        13.141691360935949     
 H      3.8543373520519677        2.4119621797252173        19.542069194093411     
 H      3.3545206464146493        2.3799825289753627        1.8507156354007464     
 H      4.8394099768127816        2.7847954248660689        33.994885413831831     
 H      4.6373683669200689        2.7488549977292807        14.478170656136744     
 H      2.3304612000879574        3.4286772500751912        21.317859755742710     
 H      2.7483676573141644        3.0442152375127516        10.486943652619114     
 H      3.8202206162535557        2.3190120090114323        24.878635176709128     
 H      2.6666390974783818        2.7722818073651507        23.672710397471331     
 H      4.4020545673129394        4.9844482407313464        19.574358433916533     
 H      4.2632192361392560        5.0300914306020594        31.707429765806197     
 H      3.7537420395266996        3.7013829614021310        17.002978300727090     
 H      3.7338643244492560        3.8088903055949013        32.732183959152913     
 H      3.7569435740712995        3.6914765907907077        24.231359268885875     
 H      2.4317951880745108        3.8989967108750587        33.564918227948958     
 H      3.8734313392754394        3.6986988086540324        5.9955421296044102     
 H      2.4404470084520304        4.4260876306485111        22.672635338772572     
 H      2.8890919610315455        4.8275224612040679        19.541492962624751     
 H      3.7309732389015209        2.2888428246223862        38.416379078705383     
 H      4.8760322229142101        4.6438233278792627        6.6386760662100466     
 H      4.5732161009391445        4.9117664969215289        28.197709288381816     
 H      2.8619549511297566        2.6481356043336941        5.5629384979379237     
 H      3.3962825727457484        5.0538729708011889        5.0251710810590344     
 H      3.7905093557241205        3.7564039223182979        22.588471646859450     
 H      3.7627892178110089        3.5878853756574380        39.191914017361974     
 H      5.0593713645447291        3.3495500848352613        38.402004155497018     
 H      5.1420801288153051        4.1062250375032141        30.147843249089714     
 H      4.5875258936950827        4.9130255406758758        24.980554419891376     
 H      3.5393285908690815        5.2233084075909231        14.662425406362143     
 H      2.2853467370829610        3.6966201587502265        29.977008382374308     
 H      3.7406058137007405        3.7668164669250985        13.797611042243195     
 H      5.0780586684904723        4.3928750367816702        26.455809956781259     
 H      4.8813536740824519        2.8446759767246146        23.209669096013101     
 H      5.1012959611326707        3.7574342867262627        39.892847660928105     
 H      2.7278879370858471        4.7734529881074579        8.8374990739982433     
 H      2.7426511846524937        2.7535562664986903        35.147486238805428     
 H      4.5705101128909442        2.6858577614397250        20.984433845455975     
 H      4.6557053402238013        4.9392552169103903        4.0215988811957732     
 H      5.1325749337386357        4.1474228618812230        8.0386078044594704     
 H      5.1578999240190608        3.3588325366629261        25.295150419005026     
 H      4.6903133045425012        2.6583125290209453        26.553495433421816     
 H      3.1678141245485021        2.4191751549206040        14.809834332290869     
 H      2.3839751829830877        3.2291628987998768        28.345059076370692     
