         301

 H      5.2797755949058489        5.8835498335305569        26.794639643061295     
 H      3.8059268788933678        6.1954788572988893        12.444089533466974     
 H      6.2442700694985156        4.3232865403537168        32.810525902624896     
 H      2.3718371765111628        3.6255103719455501        15.607387001828728     
 H      4.8512214115436976        4.0758082217451355        12.232508824581437     
 H      3.5963564984714163        6.0360565939763511        11.472522294983532     
 H      6.1396491874310177        4.9033641985503102        23.139881762044109     
 H      4.4112952662202520        6.2244134066428174        9.0954445162994411     
 H      4.4236493886079433        6.2409383925649369        39.179744890837199     
 H      6.1406078763074143        3.7712753799614229        38.455190536285016     
 H      5.9608397828111563        5.2662649402320785        24.626701133353453     
 H      2.4830037038029040        3.3860545214397915        21.226273659358018     
 H      6.0373607289756022        3.4383671702956349        14.425523193803706     
 H      2.7238599716416085        5.5317447746826414        17.292660002645420     
 H      3.6574799061879162        2.3747257787154852        25.248182122330658     
 H      5.6428068090627841        2.8606343555359670        1.4441531435634560     
 H      3.3956677022146708        2.4910017922929057        11.412842232984845     
 H      5.2959783318299731        5.8912501003825133        3.5858715766095526     
 H      4.4563048348517409        4.8803734791290099        10.992576447349746     
 H      5.6267907724044610        2.8037024655505935        5.7475687264580522     
 H      2.3892585984207044        4.8277509624761565        21.691101907840650     
 H      5.1949378541457616        2.5096534359279787        24.967894936642928     
 H      3.7217206998526109        6.1525050342844594        16.075617955334710     
 H      3.0368087381944573        5.8314899079122675        19.985029055774969     
 H      6.1236466610032778        4.9284559196036213        7.5000974705081722     
 H      4.9154668187134885        6.1016299545001615        25.321588778718741     
 H      5.0660741108394634        2.5682965665041659        34.705515364045645     
 H      3.2196794318108446        2.5613019145424141        26.681444603508719     
 H      2.2544611994080679        4.2526796899536086        9.4870618801344051     
 H      4.7525477569692844        4.5792807520760963        5.7185969797772209     
 H      5.9035547027964075        3.1524129584941245        2.8956706121946563     
 H      3.4699039626620669        4.5537636027878925        7.8723585133065077     
 H      3.7993041986130529        4.5869770990026950        10.274799701172567     
 H      3.7526754808214120        6.1273541710263117        24.181535888821177     
 H      5.7982199837553798        2.9865087270970014        10.059427495370006     
 H      5.8178090307531720        5.4705877838681705        28.197846603718386     
 H      3.9876915071595054        3.3796598650512375        11.204321779508497     
 H      3.6540846527468576        4.1908659690293542        27.909827281292714     
 H      4.3202689150122380        6.2117611657597784        28.516877737623549     
 H      2.3423318356274780        3.9862317383483967        22.956840769428663     
 H      4.1738560790798882        5.0097534239111550        2.9390469881782062     
 H      2.4524649043247488        5.0751153846157351        39.723174703020362     
 H      3.7461805642057779        3.9386789600951735        30.461870085705463     
 H      3.4501656061897679        6.0715124615411975       0.34243083902223415     
 H      4.2340927135291127        3.6715718259433343        17.699076226567726     
 H      4.8673439065261404        6.1262730488345669        34.768974167756490     
 H      2.4896631151060808        4.9573832442008294        25.903136599099174     
 H      3.1973313249694537        5.8320855620314402        14.699320794958037     
 H      3.9554379816520422        6.1743152229884117        30.111237028812180     
 H      2.7585029306213538        2.9876985478718341        37.997116241447870     
 H      5.1523930902388688        4.0086361583087164        24.309797735781935     
 H      4.0912680764370064        2.2698617601041859        33.466941782822211     
 H      2.8582472039945950        5.6860818028814828        9.4127285010795987     
 H      4.1057347517279652        4.8510263077923526        25.132510614927980     
 H      5.9016526579087092        5.2746680161266530        14.997177857073469     
 H      3.5070125879121368        3.6463872975807510        1.9581209359891663     
 H      3.7330276005502312        3.6088081075228167        13.220692941546424     
 H      2.3935508389276019        3.7112968424003543        3.5378413799568103     
 H      3.3267040906246477        4.5241962526691699        21.954708853815244     
 H      4.4172451007736866        2.3124622810543061        27.948699521190107     
 H      3.9295552828888614        3.6426978834949573        9.1008027888679877     
 H      4.4238239466797546        5.2078166063536262        19.738738299844879     
 H      6.1632364642406365        4.2397086964723973        1.8738130588509301     
 H      4.9124192821839872        5.0501977602181007        18.219231537880773     
 H      6.0763906253226274        3.6301711084538089        4.4869574120448270     
 H      3.7069754716145562        3.8222841402607552        16.270408483258386     
 H      2.7255215910028223        5.4993391722742926        13.224692557591007     
 H      3.4566754263263828        2.4596435850023837        30.854454292126849     
 H      6.2311379408371845        4.3000750298335930        12.945184332866397     
 H      3.3064232839978849        4.0261176229287576        5.9310387669819740     
 H      3.9238324503462811        2.3111779246060600        29.413953700674377     
 H      2.9178879065646535        2.7676612258094733        28.136664645749281     
 H      2.5947180457057391        3.1314159542310485        14.130696160881552     
 H      4.0289766971640875        4.8655421887854615        1.0947765537275986     
 H      2.3712969029518791        4.5968966774953230        14.380608221839349     
 H      2.7875114743581983        5.5019228347734881        28.958479402493786     
 H      3.6477146360454107        6.1500014252429365        31.629928808280706     
 H      6.0887894057282370        3.7859393410242843        34.316110862144761     
 H      5.6702100619156512        5.6367852963627501        2.1482462773152178     
 H      2.2615194194448920        4.1909827729454436        2.6615171892732183     
 H      5.2342964512786221        2.5198601248617738        19.938241839734783     
 H      2.5799937383659888        5.1779525793958090        6.6504460049150120     
 H      2.8760783167877402        5.6580384437985138        2.5220084157124738     
 H      2.4710037294392939        3.5941738473667821        31.210815368085179     
 H      4.1439690595469383        2.5517845162093233        19.921604224944058     
 H      5.4467904719679172        2.6567168582057565        29.068582052700936     
 H      2.5369249217614129        5.1313266235783619        31.479044081271422     
 H      2.9934855848796689        2.7238848516269987        9.9709082428471252     
 H      4.1662735377948810        2.2787637696741028        5.3334494220489006     
 H      5.2061861778534961        2.6609716077332921        15.616869804595590     
 H      2.6755019565424965        5.4278837345346798        30.515311778426721     
 H      5.5171367864054135        5.7538389065319953        6.2814878852829237     
 H      6.2262497570065394        4.1951982545259856        5.8737415303111957     
 H      6.2102327791962049        4.4121877428904517        14.577342896545959     
 H      3.8207843959750538        4.5737071019998430        4.4118079113475828     
 H      3.6823497539179244        4.2575886971600649        33.547473455861017     
 H      6.1883737575728066        4.6714743460033885        10.276999290496994     
 H      4.0109261049448630        3.6678815453507769        14.741247815915118     
 H      3.4419049997227815        6.0106909877113965        21.693614871410638     
 H      5.9883552119184804        3.3660623899026740        2.7559115870893436E-002
 H      5.9147888322014470        5.1630376221854961        11.738172682588678     
 H      4.1669393163677375        6.2437686512502086        22.446529103204277     
 H      2.8689568507201941        2.8112735273128160        2.2992658801896608     
 H      4.8918258242149397        3.5860679769061110        27.308511203336113     
 H      6.1565398203528474        3.7309760250501784        20.185822075898741     
 H      4.7732279602864320        4.5252768851496663        38.303208893490520     
 H      2.7454723727843069        5.2738544031729262        27.391123095242737     
 H      4.8271460970664029        4.4464191275862861        4.1976358654884249     
 H      4.9544100325463720        3.6177952834520157        1.2061645863246189     
 H      6.1616772031030154        4.6184892073922077        31.331808334197355     
 H      2.3487659365817217        3.7439496154589711        27.084983823840648     
 H      5.9566361586951242        3.2684830401011418        7.1430387774299158     
 H      4.6392744651366336        2.2958289410992760        6.8120826627911830     
 H      3.8552067647116193        2.2965236355985836        14.109685107085811     
 H      2.5386088860313683        5.0229250428467171        35.761176212357007     
 H      4.8313467657796227        4.2411869727256679        2.6817376979392389     
 H      5.2991369769899483        2.5505174752021271        38.702521582223817     
 H      4.9098661511441355        6.0171297039734064        7.6395236320958926     
 H      3.5688374644518159        6.1266586522283752        25.984776086902059     
 H      5.9378548334883563        3.1998142710596817        26.092486951487313     
 H      5.0984869371349077        4.8525242211274220        33.673092097025574     
 H      4.2712641744528774        2.2587377040419350        16.907930099897335     
 H      3.4027950420380284        2.4572411784307118        18.599234364526531     
 H      4.7041188540779704        3.7083122482673225        20.728055951337115     
 H      6.1268138319736822        4.8564419129174192        19.097578806154917     
 H      6.0887033394221444        4.9872060792584607       0.55127214335896257     
 H      5.9528169455193556        5.0633898866435381        25.639444983655881     
 H      2.4773338224633097        5.1405004517690545        15.847715129413475     
 H      2.6246684968305383        3.1039354865054571        4.9185096490048323     
 H      5.1124240706613016        5.9145781278296097        31.105778383105694     
 H      4.7424243025469961        5.0264261775943053        30.794367545839602     
 H      2.2719533113627013        4.0107734072114436        1.0051501220819643     
 H      4.0765138095278770        2.2812856676303830        23.782492462516384     
 H      5.2774184726384501        5.7362202425306750        39.399992250619754     
 H      3.1606973424402809        2.5937194303858462        17.101442345973830     
 H      5.9973714379164855        3.3463693570193844        18.609663665906332     
 H      4.0175873397719748        2.3128667806275356        21.410275411265296     
 H      2.4451982227245161        4.9511298217512101        11.757344133098849     
 H      4.6532854771030649        2.3041400080264074        2.6160699764851718     
 H      2.4718130921926944        5.1192617599635311        10.757679458575019     
 H      6.1347334456974707        4.7407007299428923        35.482211845168372     
 H      5.7073293950531623        2.9427865872920287        37.276301096914288     
 H      4.0048654381915769        4.8696525828869905        16.807666701429060     
 H      2.3677437653109603        3.7652802311891604        7.1721850311347062     
 H      2.3431137362599515        4.5812226036985226        30.081474706316488     
 H      5.2076375172038949        5.9591865308035050        16.426579500002234     
 H      5.8141248117517197        3.0372172980717296        27.640223296103002     
 H      2.3504718621465015        4.7499148282713177        34.149153073990036     
 H      2.4977027656881909        3.3742390718794115        25.636646580150284     
 H      5.1011910370028284        6.0401528552225443        14.909077982045099     
 H      2.3097417603236203        4.6075311837577377        4.8628256463725332     
 H      3.0470393584948652        2.6927801306896928        22.565971786648035     
 H      3.4235099467780761        6.0692574033477849        7.9162322016482332     
 H      5.5759102131509408        5.7253918168127358        21.961685662194533     
 H      4.2855571065378779        5.2237395748688620        8.9408964017365395     
 H      3.8631706142670863        3.3414325287849622        3.4550698293038900     
 H      5.2721179450521909        5.8361693199927700        13.367918182507969     
 H      2.9195499465102341        2.7977680930368614        12.245903725017362     
 H      2.7246243274804276        2.9592670046996266        24.047262129746453     
 H      4.0481970892255426        6.2365884925719035        6.4054680155932235     
 H      5.6452793811875246        2.8287134919848169        21.513952781322864     
 H      2.2579154331533546        4.3708748497522674        24.483858794366217     
 H      4.7163921684992722        2.3665106015276689        26.404587887470576     
 H      3.3942990659553809        2.4592436989479527        15.565682994258161     
 H      3.0123440047718346        2.6877511344512697        36.446818869197237     
 H      3.5699525916841526        6.1098158391333044        18.447084187039650     
 H      3.9827472214218433        3.3922849730049709        38.927250410043932     
 H      2.2974159600196491        4.0951937550246678        17.041901064700166     
 H      4.2850787021702219        3.2440461039384645        5.0596421943801335     
 H      6.0778199430993807        4.4703780838233902        27.045468744060091     
 H      2.4549945675486584        5.0487029383920330        18.814638219135158     
 H      2.4538506042225152        5.0130617473089574        1.2264248564731848     
 H      4.2345184821179753        3.6720287808798751        31.329413608136250     
 H      4.1163093231931702        4.8819606285423740        29.310431623130611     
 H      2.8672157223591523        5.5953169818921760        32.955829877274930     
 H      5.9604792692278163        5.2803989839445169        4.8545407781553109     
 H      3.4189317178771499        2.4403037764563615        34.842480768947382     
 H      4.2920581136787010        4.8676259779835283        36.919077420843713     
 H      3.6842754948488512        6.1646144908901714        3.8442643021490688     
 H      6.1912029812077769        4.2964750000067209        17.409280221955740     
 H      2.6448805055374374        3.1050414221388341        33.704131645612385     
 H      3.1116292695260372        2.7879018486587639        32.311225391933242     
 H      4.2999892143964402        6.2133707620722740        37.631979286499437     
 H      3.7031403727726566        3.9494566003614406        26.368594229943351     
 H      4.5041646343799568        3.8136973486715684        19.184787865128413     
 H      2.2787546155288010        4.5324586761071854        20.215477142843849     
 H      4.6536505383846505        4.8372737968339461        22.745099021302131     
 H      5.1665196566929952        4.6517344610885694        35.246787221169953     
 H      2.3980384623979716        4.9607614704337708        8.1662427826967967     
 H      3.0883875857895031        5.8321046502264409        38.585681428100031     
 H      5.4282446225535788        2.6699167657502487        8.4534121977718719     
 H      2.5347266912576845        5.1769503060200446        3.9027685709235453     
 H      4.9070443693446668        4.0141056551474819        7.9919463890962303     
 H      4.6978849123144961        4.5569554241323793        21.266365204097589     
 H      6.0332522154579795        5.1514374489750976        29.886111901590571     
 H      5.9312836466146930        5.3035906452592361        34.013066130690184     
 H      4.8719849511730828        2.3941204897872241        18.282460668904562     
 H      5.6124447765925591        5.7115818656062505        32.552745210035759     
 H      3.7801981323020577        3.9001057380171869        35.767536048161311     
 H      4.3204388741203053        6.1971933835598021        33.328579670535632     
 H      3.3769425881089634        4.5980854525350914        12.013844473031931     
 H      3.7461199445279449        6.1448867264436764        35.904019273402490     
 H      3.2247000392155742        5.9642653699268511        34.475100755459728     
 H      2.3932773795916629        4.0225499042773691        36.877671048626027     
 H      5.8971838671493595        3.2548745511526862        35.763501051481001     
 H      5.8842716624089109        3.1546387795066049        31.806338857717531     
 H      2.3717968399369629        3.5845057403060503        11.041735342086259     
 H      2.8780723561186621        5.5672559213565220        37.120951790590667     
 H      3.9219586542973697        3.3693384994528115        24.918680007597573     
 H      2.9246560064261704        5.7398807480846923        24.594832302675410     
 H      3.8090071765300171        6.1903639999992492        10.495112912614838     
 H      5.1837010671915191        3.8865162962620277        29.923354635783117     
 H      6.1525475232342242        3.6609529083839241        11.436701918545829     
 H      4.0679037161479590        3.2645557857384970        29.077875363829015     
 H      5.1526133490106076        6.0259783698659124        23.614003646264457     
 H      3.0648370547670232        2.6865758899933310       0.74629192718207749     
 H      5.2368438457671438        5.9076532449431616        11.835183809393056     
 H      3.5791109945810375        2.4110288630726382        3.7010468545793551     
 H      4.3336964464383128        4.7676833898474200        15.247033713996172     
 H      6.2307445301873434        4.0063535701427346        8.7687314572753916     
 H      3.9478669865808000        4.8330415221636018        39.529426407815677     
 H      4.4434460353628511        2.4378775343680861        8.3458993163767445     
 H      5.5050926163995895        2.6982244805035047        23.434636460558753     
 H      3.4457385876262103        2.6965139018260658        7.9653500620281799     
 H      3.3161613384211059        4.3451957466325570        20.341605647457925     
 H      4.8731599733195932        6.0831908412751421       0.85627871191161509     
 H      2.9217596513773914        5.5069285712827369        23.067285079070910     
 H      4.4884348971201620        2.2765913664024238        22.334822304169446     
 H      3.1177028697160614        2.6321691338429001        20.067211205661184     
 H      4.1475360431049060        6.2178730099756114        17.601451139436890     
 H      4.8436339753643187        2.4459183861450358        14.168600202055423     
 H      3.9423544383152875        6.1863680944580697        27.490201993549338     
 H      6.0773636818700814        3.5154423415675033        30.296995093466098     
 H      3.7814660968121725        5.0695354848038887        34.818686703803145     
 H      4.2638902803840146        2.2749324002946376        12.662553900758956     
 H      4.1224138779144228        2.3133783789023474        37.783795785341077     
 H      4.2283000230351551        2.2857070481785526        1.6715214824193187     
 H      3.9012481960616792        6.0969245035191584        13.993394031462973     
 H      4.1977442902373445        6.2363820935665286        2.0425477744935505     
 H      4.9272406293987707        4.3862899443731411        13.773107642202703     
 H      5.6879241715092954        2.9092067354901818        17.115133586134242     
 H      5.6254332934048401        5.7011922506996386        17.931303947520078     
 H      6.1783021120997041        3.7740691157329089        15.934487704238405     
 H      3.1782390257401518        2.5726609603471631        6.4568749275743533     
 H      5.1883874213623136        5.9732349089508165        36.429703536962272     
 H      3.1024785705683078        5.8354813137590034        5.2096102560772675     
 H      4.7702964376521058        4.3513731945048413        39.858525979307565     
 H      4.5438099566749299        3.7621564089212631        22.718230887821790     
 H      4.9685183725854269        4.9311239543169947        28.042511369514411     
 H      2.6742645516971626        3.1268331080609997        29.718796799596397     
 H      2.2761136986518586        4.0911516346373453        32.630037246843273     
 H      5.7475076462078629        5.3111069898791117        20.498908956675319     
 H      4.0263439241546184        4.8026097592669075        7.0191955813321840     
 H      3.5919066571581442        2.3813565763789959        39.203615769333304     
 H      3.2511116723283986        4.4191614825098373        38.108233035535498     
 H      2.3051478635389442        4.0113837111136093        12.939921172565972     
 H      6.1975369647730512        4.6813776142518870        3.3528826198523678     
 H      5.0065718873757756        6.0211230740615074        19.375301928588087     
 H      2.3825523052616324        3.5693946855409289        35.307685767179031     
 H      2.4328077703638193        3.5413484683062801        8.8071567906871611     
 H      5.8923335482529211        5.3671871367334161        16.000152642253131     
 H      5.1473457890072920        3.7666916521625091        25.827118731377908     
 H      4.5862967346525920        5.1609521283628741        26.564105280175909     
 H      2.2775693353619744        4.5418306218501883        38.314290953143342     
 H      3.6145453483716361        4.3674414523393050        23.763018214195849     
 H      4.5216425840770986        2.3005724147383635        31.999487456508056     
 H      4.9566355155112998        2.4857276336123273        30.497618736303401     
 H      5.6736358118714829        5.6484654232185898        37.846245988405421     
 H      6.0005346068737202        3.3935052083305335        22.897640459720748     
 H      2.3642871364479299        3.6107161506633911        17.979994676878317     
 H      4.6429587704468913        6.1312248818598709        5.0130291530225346     
 H      5.1840605762204612        2.4823128592540935        11.374998205386849     
 H      4.2049965952740047        6.2430163325601526        20.897276896586980     
 H      5.0889697135823164        2.4506077081089930        4.0652345750523322     
 H      4.6527521182956644        2.3827860482171364        36.309290305309268     
 H      2.4768451329579149        3.4394377170080568        39.444793443973865     
 H      5.2971888948200645        5.9231052202003962        10.317544473780925     
 H      4.4762467289966841        3.3569891854028842        6.6475666441226711     
 H      6.1841333007205677        4.3173543162695962        21.696128428372251     
 H      3.3786171732670671        4.6182321506876196        18.589407109414516     
 H      5.5538607679445890        2.8227558100143773        33.258780544104383     
 H      5.3385461278992645        5.8255513322510408        29.616751970283556     
 H      3.9577717636365448        4.5780747896945249        13.500421766825585     
 H      6.1919694555275804        4.0484004870765364        28.694608690389749     
 H      5.6748147205133153        2.8749254933543082        12.893575157395116     
 H      6.1984105058110641        4.5637617921754936        39.095592569829563     
 H      5.0588326666948751        3.6825184857884135        10.134355405709334     
 H      4.8493460456944106        3.4984817462410178        32.969935586352250     
 H      4.3231995132927485        4.8259550743929358        32.290296624845084     
 H      5.2160767519879494        4.0399904844820629        16.233299312679559     
 H      4.4393418323754004        2.2731325488394893        9.9966464697135482     
 H      4.0604799396968430        3.3808094641854201        37.322779972966117     
 H      6.1900998697193259        4.3479872242580182        37.036600938275534     
 H      5.7829960282488777        5.4793464268852343        8.9430061138767023     
 H      2.3861379072827016        3.5326863991812170        19.014543961999252     
 H      3.6333411667453372        3.4963440178051273       0.46028850620944461     
 H      2.2769203600757213        4.1413823356399959        28.575995379354598     
 H      5.1629581364168908        4.3361918830749859        36.770843397222393     
 H      4.7831177216010001        2.3924241973163420       0.24327928919208938     
 H      4.5698709499425778        3.4006077939524073        34.447226881444998     
 H      6.1307276675657487        3.6910408395273304        24.553035806511069     
