         169

 H      3.5004901314580219        5.1059600100423639        10.973509258811371     
 H      4.9011387808590836        4.6904194475424426        7.1053684619357229     
 H      2.2741458055987422        3.5856880440923447        9.2905515508355414     
 H      5.2105125326260646        3.5166466475870677        14.459897103283565     
 H      2.9496843390922898        4.9352253788664076        30.569691811078581     
 H      3.8054029805677216        3.7426648571565098        36.528102258800743     
 H      2.3143504130331998        3.6175296501545007        27.410951193803932     
 H      3.6972364465463734        3.9329055297683895        16.178958984636889     
 H      4.1803426643808068        2.3651174822655396        14.993376415057512     
 H      2.4153015542852021        3.3830176772145037        4.6118500914624905     
 H      2.3425241312591609        3.5165501760742108        1.7977047838067270     
 H      2.7832113336308866        2.6814659290122620       0.22898098220307977     
 H      4.8086449714274124        2.7150473675571800        20.335439425857594     
 H      2.6315934960393768        2.8281999227358794        3.1642766710360752     
 H      2.2852649332873614        3.7387541417006371        39.114413766612614     
 H      4.1023337862762510        5.2003961632290299        12.404759742823575     
 H      4.7684683267600070        4.7370259991818786        30.419833996150128     
 H      2.6331861323951951        2.7637768421278408        26.057424759281687     
 H      3.7829298827454010        3.9403569416241613        17.841875840946376     
 H      2.9232925507071030        4.9941591471146172        13.774646178047568     
 H      3.8068410975911533        5.2450574625749384        37.146454855978128     
 H      5.0653086291019314        3.0901714620072727        7.2120651569633329     
 H      4.3943342693957455        2.5194691020956124        23.410431431751036     
 H      2.7842993434629393        2.6214730257989682        10.843448316755431     
 H      3.8199827857232722        5.2243458442670354        3.3007697323102678     
 H      3.0108875469947578        5.0051952826310950        4.6843493357603121     
 H      3.9416517180345649        5.1601023703116384        25.999722452362988     
 H      4.9866739866780030        3.3029398375161505        4.5117390861920601     
 H      5.2351999074819506        3.8239225866188433        5.9000252520595700     
 H      2.8897602805657350        4.9756528363224941        9.4542865779987437     
 H      2.3101141515729484        3.3751310673731050        35.935934730336562     
 H      2.7100393048338614        2.7776696355206036        23.260021163471034     
 H      3.3581932284507174        2.3204758079019632        24.574352860775665     
 H      3.5920252202314011        3.7457646344253313        10.073606987705576     
 H      2.9301977694795456        2.5024319117942784        17.791511989040398     
 H      4.9807071795570108        4.6008136671526847        11.271172905180000     
 H      4.2613811363624405        2.4511968298092790        28.676590154435022     
 H      3.6574697075840352        5.2391690358494136        15.395311901192571     
 H      2.2783297395973756        3.9106334336209230        18.165754082466016     
 H      3.5798543078123606        2.3721481806994267        4.5618137406821795     
 H      5.1550008294136349        3.2839113380449043        33.305077190046454     
 H      4.6905318132176754        4.8744842695191348        21.745920551135971     
 H      2.4532375270182736        4.4159923866005890        3.2172524843661869     
 H      5.0240488011232225        4.5169825911294632        15.650317402343349     
 H      5.1950398341416131        4.0874258440754101        3.1974818645500358     
 H      4.3252612660547456        2.4392980154083208        10.681269920128511     
 H      3.7833213875080069        3.8963803095273697        29.652889978291814     
 H      3.7256503700099612        3.7857360819850068        1.1123861968147259     
 H      2.2529276811538486        3.7955492602840941        6.0557026765209274     
 H      3.9377675703756840        5.1715175735050680       0.51587625229267620     
 H      5.1107530079215842        3.7933662805174690        28.955591846202573     
 H      3.3490967461789389        2.3164064316717234        9.4682163215704751     
 H      2.3819243297110995        4.3363493266785360        15.389461569901311     
 H      2.7160317143727006        4.8001505955870698        17.012598705921068     
 H      2.9936565480941768        4.9009287051655441        1.8666814301562760     
 H      5.0201976186319239        3.0052833507450236        24.766532468657331     
 H      3.5906855268682492        2.2767286954983281        35.818773339425647     
 H      3.5389998489573835        2.2906466206300977        7.7939801666640438     
 H      2.3676769217494416        4.1002852746546914        10.902533275370521     
 H      2.4456367134711341        4.4433900439607026        29.173193402894050     
 H      4.6371862838871163        4.9331106497648545        4.7098635119152652     
 H      3.7429433765854121        3.7330073889172928        35.013972319835027     
 H      3.7359737570306244        3.7238691486122022        24.054192040944809     
 H      3.7168779434439800        3.7668102123718596        33.496304677703137     
 H      3.0767768822306549        5.0508323357495080        24.708714251649631     
 H      5.1652031816114876        4.1987532662599643        8.5438439181201407     
 H      3.7052433315871371        2.3168308971394289        30.113380380795149     
 H      4.4440158982682147        5.0030350679132187        9.8072918728987784     
 H      2.4222521622319091        4.4444737362593223        20.359982874256968     
 H      3.7270926279350762        3.6532411217888630        31.155968388823890     
 H      3.6383236586384129        3.7401832949874438        6.8675521760946889     
 H      3.5654838396849704        3.7303792521280847        8.5106519943601491     
 H      4.7070801894370442        4.8751162748655608        18.793560272444548     
 H      5.1809841049877461        3.9276435933484461        26.107345184639321     
 H      4.2335461933124510        5.1120293131403010        28.890077268662278     
 H      3.6701065677708335        3.8861255151403720        13.077113057290306     
 H      5.2173648351676238        3.6652073987731377        10.053195684905232     
 H      3.6300794184496148        5.1466084684975515        6.2467885893245265     
 H      3.9015282146710337        2.2917488225316758        33.090185086518929     
 H      2.5002571842645289        4.4840479675646829        26.006706383796317     
 H      4.7196795870117603        4.7853057101772212        27.343075119145716     
 H      2.3412457348758671        3.2506140616689341        32.924383432281111     
 H      5.1040186199722157        3.1098817447024953        11.875518301114393     
 H      2.4088238157388528        3.0991538694186573        12.263662127051383     
 H      2.8649009933533294        2.5478539281084780        31.702178536262053     
 H      4.4940274533165665        5.0444893135790787        14.128034555032409     
 H      3.6535935647325104        2.3163821663699498        1.5795356823166518     
 H      3.7050718851402618        3.8072247097437311        3.8110178162763018     
 H      4.8057337139715823        4.7746911154889462        36.000478867350765     
 H      3.3121022070102892        2.3694349069395146        13.745405560286919     
 H      2.3646480970102393        3.3384435038214804        21.746087641965147     
 H      5.2060784674708724        3.7916490551013031        23.413969817817751     
 H      3.4221047704893106        2.3175228459069168        16.358101828265831     
 H      3.8280139510900515        3.8114349322306458        19.404947211331404     
 H      4.7546959678463798        4.7936455350264406        33.035485657420132     
 H      3.2351784176558183        5.1492541073396065        18.593930800157477     
 H      5.0747154816110172        3.1892033601750973        30.385905285649436     
 H      2.5389352648218244        4.5766891796796623       0.40941767933336382     
 H      4.4953660651821332        2.4582797014197761        17.655353770384831     
 H      4.5174822106363033        2.4682174069121490        5.7371231130098463     
 H      2.5137443372592472        4.3515655566082110        23.377812126696735     
 H      2.3933105372295289        4.3521697773249057        31.840828124297502     
 H      2.5230404297182272        4.4539550077123851        37.132723882126086     
 H      2.2935100279833085        3.7122293646110158        24.724439571512598     
 H      3.8336571047538133        3.7990676646293395        28.150161244394873     
 H      3.3442868183095631        5.1355347204060795        38.734191783710841     
 H      4.4341671649221963        2.4227530048863932        3.1683562227518580     
 H      3.0853441390177982        5.0693980246711554        27.449981782672413     
 H      3.8181778757485554        2.2815468686869944        21.908945106359901     
 H      3.6177339438265417        3.8282243315126530        38.050365199193493     
 H      4.8491298210611227        4.7296268125247076        24.697490463189933     
 H      5.2235117504568169        3.7254103881411562        37.461248767574922     
 H      5.1999074439015276        3.4341743346170750        18.808715517413887     
 H      5.2126420904640547        3.9702434068472310        17.254122838782344     
 H      3.8361253725900397        2.3429189107971644        19.060791509702423     
 H      4.3124802389355912        2.3813607373276180        26.223558955927341     
 H      4.9830837741936156        2.9635933177112026        38.754546311326152     
 H      5.1325195270957717        3.3309544645578839        27.496681729316155     
 H      2.5788330646324882        2.8986156248203820        37.389841111002198     
 H      3.3847585592969192        2.4311589762955284        27.429689104300380     
 H      4.3942636207216070        2.4600246781150243        34.515372345202302     
 H      5.1632710724382846        3.4339104808178167        21.715212675057177     
 H      4.7909958348270845        2.6718586919228815        13.290128743183867     
 H      2.6043148816725239        2.8251507935929872        15.127909082680437     
 H      4.0468038501069614        5.1583060806420251        31.698475752015259     
 H      2.6946119285622956        4.6931078117677876        12.270918405844432     
 H      3.9031244393567475        5.2157783434077949        8.1360287676934906     
 H      5.1844491680466191        3.8252399266115797        7.3608802583713384E-003
 H      3.6223892695580742        3.7256926942293189        22.482377341031331     
 H      4.7042258334870750        2.7322810101172843        8.9484749249166562     
 H      2.2567066527903306        3.6368095730053200        13.738338141965860     
 H      4.3780713573349130        2.5578782025786038       0.20381918378490127     
 H      2.3613127714694255        3.2026651531058534        7.5968665088182696     
 H      3.7304200244969521        3.7392822621023365        26.516504701820782     
 H      3.7357565105492454        3.7762233547552411        5.3484389707737279     
 H      4.5216273934513227        4.9143072941469770        1.9162182866410487     
 H      2.5835929484266744        4.6926943364466176        7.5854748621488941     
 H      3.9814130695318006        5.1163590825654870        23.303352759128042     
 H      4.6054206865361120        2.5312649399082150        31.667336378075390     
 H      4.0988543956100809        2.3174964775085920        37.264353891756024     
 H      3.6795238829379877        3.8326508171277589        14.616102973863809     
 H      4.9698550342232730        3.1757486608399179        1.8404233304348334     
 H      2.4438824267711916        4.1116628702784155        34.212189053289855     
 H      5.1941669902483660        4.1189334546810050        13.021472029929896     
 H      3.2794065678846818        2.3274527192619909        20.499572006569714     
 H      3.6796386739900417        3.6853079738325825        11.582166435937483     
 H      4.1244705730680016        5.1024843237064186        34.443951386889175     
 H      3.3252807005829097        5.1219353038584519        35.720040790107859     
 H      2.8557731538625406        2.9327006154708610        28.961898292582919     
 H      4.1826023740630305        5.1745100297543338        17.006647059751732     
 H      3.2751744456894984        2.4383873279336137        38.732659424757429     
 H      5.1139495655830647        4.0520187199557602        31.746470445986166     
 H      2.3916287602320141        3.4237043259527122        30.372046462100148     
 H      3.7490966961344494        2.2892515733065588        12.133653715627998     
 H      4.9978279089078441        2.9341344956723567        16.150940260429159     
 H      5.1315358750610809        4.2948541176456025        20.161226944279619     
 H      3.0020629560933338        2.4706506373612807        6.0292004045422605     
 H      3.7935558937353524        3.7585581335676985        2.7613316412787916     
 H      2.8974673489451344        2.6782345164948000        34.325300492583644     
 H      3.7392280251582095        3.9144325041581509        39.586118788956185     
 H      2.4451769814559547        3.0398264700373185        19.466525108905739     
 H      2.2989075221595856        3.4073902448665723        16.594457293739133     
 H      3.1283003535155607        5.0284901270156670        21.912832416756387     
 H      4.7736004631125999        4.8000591098732635        38.418415779079957     
 H      5.1986523273226908        3.9655436210872077        34.713301325746016     
 H      2.9980686284669287        5.0411885429591834        33.087664045321269     
 H      3.8273270710185132        3.7573717847905472        20.929140793475806     
 H      3.7946650126188404        5.2168107337230145        20.305197724104396     
 H      5.0246654332665139        2.9608253207142887        35.912241417856670     
