         235

 H      3.4311867375700329        4.5437483462181643        9.6144348905677752     
 H      5.5149259549022522        3.0441644212833339        2.8001167732973258     
 H      3.3044260907509830        6.6060055823421600        8.6203078608772135     
 H      5.4992658129639338        3.4461844641359796        29.467265013930710     
 H      7.5513436478052789        4.2948463415376716        34.892382436622569     
 H      4.1803621139316149        3.4271737138949416        16.250848040490951     
 H      3.8325342658264514        3.6765608962221186        11.700948831258300     
 H      3.2566182944406656        6.5056924584144271        22.217913110770606     
 H      6.8964377389691371        3.5122166478173895        32.578963798489688     
 H      7.7498826532929233        6.0115170553127060        11.751501173458172     
 H      3.9889448702298589        3.6954143266339186        36.886247882446561     
 H      6.1836318542231012        5.6736194915709497        21.370841438102129     
 H      7.8120647769451876        4.8249695716849565        20.179112156557842     
 H      7.2415993795840432        4.0495450809040552        31.663571006557138     
 H      5.7482278004068341        7.9590521547489086        39.865676013138973     
 H      5.4216684042818750        5.0465301867901253        27.434173596877898     
 H      5.6329380447127981        4.7613707975980644        8.8175569253254800     
 H      7.8591110093693937        5.7887542824499771        24.097647417221054     
 H      3.9438131003445465        3.7436156625690962        13.836049544035728     
 H      7.5479138571354838        6.9171107849967335        37.148941980592546     
 H      3.2666804712534541        4.5810341964562502        32.477680007860748     
 H      5.3751271856078562        7.8316577261109668        19.028279807924470     
 H      3.3971580946790572        6.7853646532464404        18.970818856714281     
 H      6.6774968886101123        7.6235692402285036        20.589154234362741     
 H      7.1173012271616960        7.4054268145699851        14.471599778423498     
 H      4.6201768014458802        4.5193261988986242        1.6590457521938717     
 H      5.9396700875289081        3.1765324962640853        30.367730127316712     
 H      5.5293139923475181        7.6822859610601650        31.747342298608153     
 H      7.2484352934024319        3.8374995091049402        24.101948845730369     
 H      5.8250452533819166        3.0852538526895059        14.481431344582036     
 H      3.1826286529074395        6.3750028155722465        23.336193678719727     
 H      3.0681833530671772        5.1570118375965208        10.463452739154867     
 H      4.8910163516679761        5.5916273498005200        33.657519493060825     
 H      5.1247405633503220        3.1133560343667885        16.374351318566653     
 H      3.0771279255057067        5.7792183076427701        26.231069591051078     
 H      3.0301066330754094        5.6085487390828064        32.116073006138372     
 H      7.6891806416193704        6.6771872944356332        12.524340852673314     
 H      5.7515903953179466        5.0882504083464619        36.225290870178988     
 H      5.8486796965411321        5.8492070785378427        12.635790086200805     
 H      5.8371102568238360        6.0741304910079021       0.75221532885511400     
 H      7.9318676671451076        5.6654798999975409        28.319151476387535     
 H      3.9449389930159171        7.4308569556618691        33.177871985251961     
 H      7.9391855590696085        4.9830107637983394        37.869281302640502     
 H      6.8098838464882938        4.5698971207445371        1.8293083867716062     
 H      3.3049156696824760        4.6871292141273067        3.3639727356917364     
 H      3.0138148501832278        5.3543152925488293        30.009563977927652     
 H      5.5670648420416562        7.5210287161053229        25.788943240090923     
 H      6.1538335525394077        5.4317614693375100        6.8759592974120975     
 H      4.3336994685259027        7.5948960684306819        14.135471438210626     
 H      7.8725719391599185        5.8769947002826326        9.7559663839538828     
 H      3.8633602550872252        3.6659376647390460        30.793264819831386     
 H      5.4150342162047780        3.0273003165090198        38.227269599524320     
 H      4.2898156475020368        3.3474048607305784        26.584741106345994     
 H      4.5933619515357984        3.1757662757849574        24.580945034209847     
 H      7.4718810573445840        3.9688203927152452        8.1180997989062877     
 H      4.2018298583282956        7.6252488427429332        3.7074956821792631     
 H      7.8635374851319098        4.7282064969309863        33.906589119202536     
 H      7.5398029081296816        4.1687791116618698        12.867279543553662     
 H      3.8971778927691738        3.6578905183086494        12.746008236503336     
 H      5.2094385609730756        5.4294845086106198        38.960333351182349     
 H      6.9162904027861494        7.4671383440786840        28.056007075554859     
 H      6.0478669085130656        3.0854489741810527        10.010005643960126     
 H      7.1474390453901711        7.1625572494487182        3.8544288420171990     
 H      6.3245144976987255        7.8116769469825815        32.587753093142602     
 H      5.3238213781337294        5.0132052551421884        15.269768480475685     
 H      7.5142520030164448        6.5790773487435361        28.222269184550147     
 H      6.1895807349217034        7.5526822869369292        3.9284584483066376     
 H      4.1018947964988524        5.9609549523336334        37.101500775471706     
 H      5.9643788608975656        5.9401597359439959        35.737548150994058     
 H      5.3807277033177829        6.0886884632992055        6.8753389901341349     
 H      7.5277983607454164        6.9176863545979757        22.480115415477769     
 H      3.0579285552070310        5.9890338431524590        15.497565950335170     
 H      4.9565245358666381        7.8923474067157544        24.973444776572308     
 H      7.6679174170937463        4.3073825196433697        30.748128460463537     
 H      7.8098445984582696        6.0706329054541719        5.4213826290712204     
 H      3.0512064925841917        5.2361568948615940        38.778785985796254     
 H      5.3138007203711375        5.0213721163539171        21.402021867497140     
 H      7.1848259025769483        3.6719944583057980        39.437700635496775     
 H      7.8308231121938272        5.0906795746739659        5.6383686157054003     
 H      6.6022229301678363        3.2797561993338515        19.150660602117554     
 H      6.6780156836614646        7.6381901034398361        39.563783722821427     
 H      7.5929045257571346        5.0335810955918614        3.6120238168200069     
 H      6.8616765521443037        5.8746918586884993        32.474232445693978     
 H      6.1228840981558896        3.5321115728510168        37.673313926208820     
 H      4.5147592865216915        7.7931844617368453        20.918553737390479     
 H      7.1033525498643710        6.6705073026821582        16.337531510523512     
 H      6.9441041744393637        7.5122953830911037        10.683302905614633     
 H      6.7158182144708309        3.3189249114497370        21.178560642734901     
 H      4.8152751205180238        7.8591128792680580        27.730937108603992     
 H      5.0108750638497899        3.1512914858554613        9.9571257411533978     
 H      7.7527795841826785        6.5264327624415284        1.7352107582150200     
 H      7.8960827623603338        5.9522241903927782        7.7158519303588360     
 H      5.3983428311742969        3.0475215357298837        7.7908572847769646     
 H      7.9038173018946249        6.0696353043336453        32.364734882311808     
 H      7.7530612647209978        5.6862283630245809        26.131782775471827     
 H      5.0016436057778222        3.2416905764780206        28.583203451387387     
 H      7.9230435754224811        5.9350430950490880        36.873867455757932     
 H      6.0010970301551980        5.2611150447670374        25.245574904590196     
 H      7.7530370336887495        4.7911899178226687        9.9769020349272175     
 H      4.9139879485671702        5.7418027612782687        31.364889203179217     
 H      3.2003161540786942        5.5737562982156597        12.458174368485077     
 H      4.0466576198655853        7.4460001921879444        5.7468180339965231     
 H      4.8976178979272857        5.5250933704088441        29.345989173916710     
 H      6.8249440711967226        7.6188843668818373        24.220616000749729     
 H      5.2439875040674373        7.5498596640998050        13.668735879882865     
 H      4.0706835354457400        3.5296810175149202        39.629193692290549     
 H      4.0215040739831540        3.9936949355251623        3.9980196559334509     
 H      6.9125823074159394        3.4392098609400517        36.848230768742326     
 H      5.1219494157068910        5.3211225384852368        13.124674603217777     
 H      7.5215061700178873        4.2379527871538203        10.855241831674233     
 H      3.3695652304306480        4.4561812245600310        30.379716317818186     
 H      7.5794184089365828        6.8468066197778938        2.6672689561676615     
 H      4.9697074298859372        5.5868141128026965        25.327007975946362     
 H      6.2193679178294046        3.2719878922570422        25.846394883421354     
 H      5.5398162710196628        7.8218627193270391        15.826135734931331     
 H      5.8768273312307029        3.0361086351548949        4.8062270489674797     
 H      3.5241759277751026        6.8932550947774915        16.130365545903018     
 H      3.7755160937659262        7.1890971952572968        39.130884136549184     
 H      5.8522321741749588        3.0287895151301631        12.332236636068822     
 H      6.4599514176121478        3.2682270280848926        23.842545357169293     
 H      3.0740761176127238        5.3681192581144064        5.2495728796968519     
 H      5.0309841502058550        3.0950746343451616        22.284868750270078     
 H      5.2532445028758348        4.8793838484119192        23.422617045918017     
 H      3.5290514795035426        4.1286696290802443        37.667046391876767     
 H      5.8984070053892923        5.7959508787633922        19.326143962476888     
 H      5.6306082843449303        4.9280824484926953        33.831977701035882     
 H      3.2412374473056196        5.8505900753609215        18.361764660314208     
 H      4.1330104371550265        7.5107288400276637        28.391525248660919     
 H      3.2924331043724493        4.6186848384258923        39.811952482529755     
 H      3.1238486570171848        6.2316042616202250        13.281757255225646     
 H      5.6935010994763422        7.9243954428949905        17.978988939897992     
 H      7.4767227531293274        6.9733037070481290        18.788875516550398     
 H      5.0084191895936270        7.9405812901397832        9.8537023981325582     
 H      6.2972909811846360        3.1927872256397900        26.902197725985452     
 H      6.8001637583936496        7.5356332690182395        37.411780271558243     
 H      6.2217267916158567        3.1176962574449463        18.217616581872221     
 H      5.9486972955481354        7.8083299278756746        1.9279226520057340     
 H      5.9344908890611281        3.1150531112772919        34.673264771682135     
 H      4.6976545501666349        7.8212836844561844        22.925018844928488     
 H      3.0161780882621723        5.4686979965295084        34.433087238666488     
 H      3.8953754669265188        3.7861521089917813        1.6678310974931223     
 H      3.6255153424443272        7.0644291558682317        11.059586715975149     
 H      7.9742626641742458        5.6453483762450638        39.873849609440924     
 H      5.6169735355798274        6.0220885200023337        23.296416116668198     
 H      6.8419840979987692        7.5862457630643965        8.6745848151197027     
 H      4.8397799673616202        7.9082710330865185        37.014820788104927     
 H      3.8470569435601134        3.9249155171039307        24.636416418761623     
 H      3.6230422259025477        6.6880905251456442        3.2090086788956222     
 H      7.3546951003651460        6.9643857236940887        34.147810683901128     
 H      7.9452513020782165        5.8720848804505632        20.442526712994660     
 H      5.3420328898552851        4.8370420194358612        19.300227210556407     
 H      6.8439282065606584        3.5226086136843442        27.814186550600695     
 H      5.4197670685020398        4.9437254256406602        10.818282724426004     
 H      5.5367552586280180        5.9555010970518643        2.7900488049369492     
 H      7.9082496853838826        5.5443242177837497        14.362281071865779     
 H      3.9285692951824909        3.5634234677259720        34.086136513522398     
 H      7.5663851719327377        4.1308673004567060        36.028944302492782     
 H      7.7726503345928855        6.4550694787224074        34.923596203623227     
 H      3.5927641573382241        6.8860577833380985        26.395502255820865     
 H      7.4173488825461140        6.8117657374229355        39.671164933560497     
 H      3.0161023832730245        5.7376840171748711        1.5348271962910156     
 H      5.8433706378860917        7.9178487579721120        35.147506843276226     
 H      4.9331657633649977        3.0660890839886092        32.383003338071333     
 H      4.2804291025367665        6.2724867849228865        8.6925806275484110     
 H      6.2714710589642246        3.5607651254417707        39.979264616412692     
 H      4.2298245674837194        3.4855112084633233        18.276579990425159     
 H      6.3063365938722828        6.6652661185021174        8.7702634472867445     
 H      4.7296347959401439        3.2448562112967725        36.267124077974678     
 H      7.7812147224183263        6.3178403147646787        30.287226863983161     
 H      4.3132455712886379        3.3613491325198774        8.0742965042478119     
 H      3.8341421242210210        7.2845049379740763        35.329062103096469     
 H      3.8822455935336189        7.3987098168631089        17.019680867446443     
 H      5.1880906887388996        5.8496079258907105        17.446397945566133     
 H      4.6649834571684927        6.8087371203284288        20.683049116210729     
 H      7.0903120774179360        3.6015092215526527        16.470826041900427     
 H      7.7062026836784385        4.6639776881652706        18.085025592586501     
 H      3.3909334645612530        6.6593185094212197        24.298693241003825     
 H      4.0283977659882053        3.6075454679327619        20.460786403949179     
 H      5.8991364281030423        6.9856058775722039        35.571060590586463     
 H      7.2906197690675167        7.1768666797628651        30.470889239091559     
 H      5.6233451612929510        7.9771592410170271        29.708322591546672     
 H      7.7558251208718962        4.7290236048125900        22.201299865258054     
 H      5.8806155532563560        7.7919481880388259        10.569480119603023     
 H      4.8714387122084739        3.0930231331041012        20.174219810372698     
 H      5.7566157807988887        3.0586138731759753       0.74010930318624479     
 H      7.8875119822598654        4.7699771317858142        24.339733452719891     
 H      5.9602774379111647        3.0458157080166206        6.8711299765709466     
 H      7.3588539867867482        4.7947198918039486        14.769522777224536     
 H      3.1470378768252996        4.6727771712288169        24.479101953730567     
 H      3.2107661855670573        5.2579411295518463        17.546804261522478     
 H      6.4189027227553010        3.7958884610828365        12.692816727608530     
 H      7.5669917161918612        4.2114824545668750        29.672572942400130     
 H      7.1400246972625698        3.8238631243820040        22.036256448858783     
 H      5.3779133324141490        3.0803325605302248        35.512320703081514     
 H      5.1653447952842892        5.8745880229228291        10.482275725129345     
 H      7.9110188670029649        5.9712091545068864        16.318473933525805     
 H      3.3521160837910426        6.5933061768878618        28.401856221507980     
 H      4.1771221817851876        3.4131856304387838        5.9910170589741227     
 H      4.8708340398248104        7.6317070117334191        1.7615183070833718     
 H      7.3623087020547411        3.9677430013015025        3.6771902876997853     
 H      7.5646203029079890        6.8489700596761134        25.965586042314882     
 H      3.2983618133891737        4.3652560806121814        28.273955849760881     
 H      6.0302852275845158        7.8921901342159808        5.9900744938733741     
 H      6.0656175971069652        7.8931249061608177        12.711889170162099     
 H      3.8129708761110068        7.2458678939667891        30.533857590556202     
 H      5.4389604703828685        4.8648570626324119        31.351748037312110     
 H      6.0326962190985878        5.7056925741048943        29.418322094577032     
 H      5.2203763261350806        7.9256850113100112        4.0715953630145032     
 H      5.6947941527356880        5.9651743301509086        15.095952142515545     
 H      3.5266934853210596        4.4289178687764998        22.337025307360861     
 H      3.9218261350038142        6.9038525924877820       0.12022110727618696     
 H      4.0814244927588295        7.5402491543250889        12.008470347113962     
 H      3.1201032657397456        4.8753224918452167        7.5401120122539371     
 H      3.5455514912286508        6.9483588890721748        6.5150850980930697     
 H      4.9983792271305871        7.8876282868944196        7.7384407430646194     
 H      3.0933362972937015        5.2522150703478250        35.484887665709529     
 H      7.7163986481910110        5.9427853589702604        18.437886483752575     
 H      4.9891677807702175        5.9037811430884677        4.8890861915129973     
 H      4.8746724730150746        6.8414053550924878        33.631667759412174     
 H      5.9230231650886909        5.1863741427631629        17.178557588234742     
 H      7.7679091962625950        4.5073113687032800        1.5400028150308254     
 H      7.3404668123013037        4.1300635870182010        5.7474318377653359     
 H      5.8316013980779413        5.9619521901962855        27.235384037915402     
 H      5.7667260096757973        6.0350714823800615        38.311103925487757     
 H      3.6054370162558111        4.1230489975239983        27.313828240170466     
 H      3.0726522903261921        5.3930350654920574        20.420938658441816     
 H      5.8536712597213594        5.2961417027226982        4.7454628568300219     
 H      7.4026386693952402        3.9128122245668586        15.567833568725035     
 H      4.5486723273347316        4.3708865206632552        6.1658408113984278     
 H      7.8124070639869014        4.6684308802328829        26.477301428335522     
 H      4.6239573012150004        7.7143539700977222        38.145490142566615     
 H      3.0409842690859104        5.0509955359137946        15.129670252860260     
 H      5.7545618197855504        7.9279155274409856        22.552783340276420     
 H      3.2628207095169235        6.5709439586141345        37.122918683871106     
 H      6.9506208383713259        7.5262114833125340        6.6444377359822688     
