          50

 H      4.8286445340145949        3.6257343239790618        17.651731318687951     
 H      3.4579996311293213        4.8016842383998650        26.841953439695640     
 H      4.8912033323584234        4.3198248200033023        32.929539570753548     
 H      3.5781761443772120        4.8965172027111521        21.689605058398048     
 H      3.6321642102561591        4.8368982557376548        14.450524666123913     
 H      3.6151021535613670        3.1399884577083790        5.7457470285329801     
 H      3.7462188676926176        3.0656658844017031        2.8165600104965112     
 H      3.3732170648362785        3.2326126320767905        11.730500602940776     
 H      3.4788031134715300        4.7647740236480400        16.508825757932232     
 H      3.0826563609740822        3.7144181452054799       0.61595739148774264     
 H      3.5146644403731035        4.8579846710405032        19.010285477819725     
 H      4.4447869206431267        3.1507806675509533        20.941324451029626     
 H      3.0515302976499750        4.0998317469154113        22.179910587489875     
 H      3.7042624359209242        3.0907041674057845        8.0954061154103556     
 H      4.3557600513002184        3.0770273842592384        15.673005011247014     
 H      3.1163195496838636        4.4607787941138692        24.744768942915954     
 H      4.8138864466312743        4.2419510077039480        30.317333500179490     
 H      3.8270692507163750        3.0404842018016107        36.030037313313024     
 H      4.5807611774520458        4.8014342306278097        8.8028999105446619     
 H      4.4914474279072945        3.1476834544822125        13.558393960648726     
 H      3.0566803340877282        3.6900044608910032        36.180518764353174     
 H      4.1821597546522540        4.9720779282531584        32.251641739392660     
 H      4.6293663534255600        4.5719688161292051        34.916520475067053     
 H      3.6409267626095088        3.0934809919022177        38.111046112711342     
 H      4.1899098730849849        4.9461302350754348        4.8743330748646390     
 H      4.3525519802690456        4.9305558667785601        39.606065855841450     
 H      4.9846356027351693        3.9858777824687164        28.099512840759605     
 H      4.9879420214215759        4.0490312947693026        39.778922419119652     
 H      3.0434937008705916        3.8615283807227199        33.676373471679995     
 H      4.1710166144251550        3.0551346283505851        18.437971561965632     
 H      3.2124946577508866        3.4934165282040146        29.337686761545058     
 H      3.1413803095692563        3.8808889232724582        3.1514900297812467     
 H      3.0955981647761912        3.9029601073053080        38.360041529252747     
 H      3.6350643373622327        3.1313708171879915        31.496394325691206     
 H      4.1669115976560693        3.0407879887417857        25.852200863406715     
 H      3.6796056681637968        4.9442422585063168        24.059155674114521     
 H      3.0437136371643474        3.9754321066690075        9.8919241472575550     
 H      4.9895268472449406        3.8925603245151690        20.479481402525607     
 H      4.8331072211729111        4.4114447652087465        10.824270494328999     
 H      4.9922824311187064        3.9817718322591440        22.827523659199674     
 H      4.8986960970948141        3.8113578703806650        25.777733618174718     
 H      4.4687363272160718        3.2294102924634380        23.322579735782050     
 H      3.7114198850707631        3.0481680058580984        33.969860596175351     
 H      4.9182382706620276        3.8205124324304256        12.868812103961027     
 H      3.0822890208068556        4.3152538181376423        19.822796005712160     
 H      4.9509869815594110        4.1615020612466038        6.8771921369874738     
 H      4.4510313709004352        4.7673153294485644        1.7766711518380887     
 H      4.9094601860909544        4.4057304142600184        37.193118681843927     
 H      3.0256436068622086        3.9910063191098186        7.4622912049854051     
 H      4.8052095944339586        4.2555738120994793        4.2653270189667856     
