         153

 H      3.6243866358644024        8.4849088272455653        10.993235378006126     
 H      3.1846575412660640        7.4791073396685919        39.059773501171392     
 H      3.5900472613681411        4.5594558120219881        29.890139113632660     
 H      8.3008926008366544        3.5335566500964246        29.023292749995424     
 H      4.8393350451092152        9.5230289843242701        15.454855120234633     
 H      8.2600266213932283        9.4573484635432887        31.435531958543553     
 H      9.1123592975210457        4.3375128751600869        21.929090143012530     
 H      6.5469350176480772        5.0254062472617003        30.006175200611086     
 H      3.1160874342271714        5.7793371840389547        33.148858409163232     
 H      3.3443957701225013        7.9970597603612879        2.2165040855919806     
 H      7.6240178753866790        5.4207203935912904        11.742197684789213     
 H      3.9819161545722541        4.3278808277312377        9.7611775339173086     
 H      7.0350331259844436        6.9714971910592576        32.999967113757172     
 H      3.3536865082777818        7.7013965704144729        21.702052964025643     
 H      3.1131605434964138        7.3163439301435913        9.2707810674741538     
 H      8.4127601893493029        9.3645377979638571        12.795908425290005     
 H      7.7592350966560488        5.1317780444390335        27.842777409137867     
 H      7.7333409750439941        5.1802273443920592        16.382672140912444     
 H      9.2773710390414479        4.3801718911033767        15.326749464970641     
 H      4.2871638202995070        9.2045831497346313        26.590351681117625     
 H      4.1755596812341027        3.9455317383925776        18.178053008906623     
 H      9.9193002558753154        6.5351427150676349        8.6093265950232993     
 H      6.9070120376084922        6.6970269389034600        26.579320663230487     
 H      7.7681660670059189        5.2454253415842418        5.4281403698079895     
 H      7.3614410704994881        9.8266512214206081        31.938304955573596     
 H      5.2144421662063554        7.5766630613197972        12.207659655491026     
 H      7.0353273631148259        5.1981092764837058        14.426978038165165     
 H      3.2446865100840130        6.0058528627755638        5.4297395155580537     
 H      5.2265073674203855        9.7350951307295297        39.745691489450778     
 H      4.2008323892292596        9.0812705091438044        24.451428997455189     
 H      9.2614596718201287        4.5766741830127833        4.2359091537356823     
 H      4.5930129275143408        3.6491265476243169        27.453875734503480     
 H      8.5955382829821332        9.1519586575619378        36.034400414691440     
 H      7.5053790525920814        6.4597489424547705        20.588910225317953     
 H      9.3714918701966941        4.5664462063680418        2.1368985848982334     
 H      6.5259868991379415        3.0519485497882148        15.564786307084933     
 H      3.7890226721225799        8.6183731794300069        21.509766286659197     
 H      9.4093080821832515        6.3538356550802702        6.6464638902337629     
 H      7.6402714118859052        3.2540195779455763        15.555436701626533     
 H      7.4894680554129271        5.3262923826707036        25.137856798652024     
 H      5.4098221168594831        5.2547452405255077        2.0405961759153439     
 H      9.0832545188392970        8.8091841292081057        27.376254353344187     
 H      5.4804986287792055        7.7223870188983534       0.62252902747863614     
 H      4.9498458059937152        5.7194679292035042        24.476213268239839     
 H      3.5879862112790231        4.7181231285533061        7.6429053590347698     
 H      9.3649273632501302        8.4965998827208651        6.6320660453858853     
 H      4.1171334404813456        9.0168424176669877        30.735241239763749     
 H      9.8952883284951376        5.6680525556235573        12.759221928833851     
 H      4.6643801283510653        6.5547189071834069        20.493479707843221     
 H      9.3062984166869462        8.3834825355188567        14.385872325123280     
 H      8.2460252923757427        9.4920164714911923        33.718740092943392     
 H      3.3745358560083645        8.0403164545742811        17.498343946318965     
 H      4.5914264680725747        3.5857114304573412        16.098671406521724     
 H      3.3012484756232738        5.2000804633802105        16.512677421656115     
 H      8.6832738772842095        4.0037132213432773        12.993530381161023     
 H      6.3630857623743209        8.2252674003595825        36.137283734702343     
 H      9.3303098679294791        8.3992761899344472        22.940836691390647     
 H      8.7015677124951818        9.0801956329343394        17.281938370287477     
 H      3.0568735573296704        6.5014612516862167        35.084454180920460     
 H      7.6858094477814216        9.7292826392877583        36.459338315148550     
 H      5.6758148282856791        3.2277116521445097        2.9672471032745373     
 H      8.7910258955685858        6.4823057257319725        31.774564172028548     
 H      9.6308582073918814        5.0962883708874465        10.849799592869566     
 H      3.1450311502617154        6.0544103713329118        31.984328943133811     
 H      8.1481133237009384        3.4750071047301132        31.076134657387001     
 H      8.6456721515852166        9.1907625150192089        1.3486475542498033     
 H      7.9307936433110209        5.8515339288875561       0.76397301850924659     
 H      5.3055156934608858        9.5266587317105547        30.569199690389919     
 H      7.6591126101875870        9.6710430607064630        1.1451604390986547     
 H      6.5004716968712799        3.0617796359957175       0.10509873387987993     
 H      5.2070933123760197        5.6498807373251454        26.783489636122606     
 H      5.7424864536771212        9.8834378393210720        15.209120210948004     
 H      6.4838336640842673        3.0015024884005395        35.666673317004523     
 H      7.5762880013932685        6.2968879986129274        36.542058066231675     
 H      6.3560768658534643        3.0450300340850291        11.483359921812646     
 H      5.0663985715126048        6.7804549392072175        24.902030012727582     
 H      7.8124518425554497        3.2583992602845369        24.913697734813457     
 H      7.3375986998392806        3.2335303065578072        29.064895486278765     
 H      6.7287805733537080        8.8906700374090377        16.900503526314683     
 H      7.7246747230282580        9.0960475087334505        25.121364798480052     
 H      3.7300963714590019        4.5063531570246331        38.755525238271076     
 H      4.8949310035130971        5.7240291925461095        13.082876142898023     
 H      7.7092069956187066        3.2490658286253931        4.3648754490529669     
 H      6.0783642882499942        9.7756069406341641        4.7682308384139294     
 H      7.9604124110655832        7.1605773692848267        15.599840924565809     
 H      3.8212902168558389        8.6872922342963168        15.369489591098572     
 H      5.3528002355977602        7.5621218875669767        5.4964661292133528     
 H      3.9403381510801547        4.2027962680763649        3.3431248652793020     
 H      3.5326158636039477        5.4338189228519651        39.252548196332462     
 H      7.2270283021214308        9.8441748684187438        8.7956053081242782     
 H      3.0684486723526847        6.8522753378432348        19.321671674689313     
 H      4.0440679434703481        4.0537793187277043        13.969742113237899     
 H      9.8877214826032791        5.6785059179389554        2.3501221150119234     
 H      6.1073153469977850        3.1628379524229664        7.1571900497843304     
 H      9.8694127283801834        7.2671636555194876        25.460265340112215     
 H      7.1105896941584268        8.0198785427992743        11.627562394688175     
 H      8.8838671604975410        6.9331053565100031        29.815965889317720     
 H      8.1182895895986551        6.1008904064669984        16.026148061004076     
 H      9.3166575171505688        4.7085961517440769        32.822425349134150     
 H      3.0248461608216739        6.1178936693963406        16.820802553845940     
 H      5.1515838109462857        5.7921108830237209        10.642885867291682     
 H      8.4660403847337609        3.7780617584942005        15.087828740838619     
 H      6.5313196899934054        9.9050213620911780        21.392976568206258     
 H      4.8231152917351334        3.4891100685749339        31.842810732839641     
 H      3.8122539760274647        8.7174374226259435        19.423499148610144     
 H      9.7263436490591513        7.3907519976416873        19.061652235115485     
 H      5.6319413314262849        3.1582729935615519       0.71717490350215352     
 H      8.5259540893037542        3.8473572083493912        33.160847370234038     
 H      4.8690874933892800        5.7354301798349745        31.004476865450009     
 H      3.3146036698783590        7.5174330667337408        13.046608869796822     
 H      9.7241721886444932        5.4941049541050360        39.877955859944578     
 H      3.7489259137344542        8.2651641108719485        24.090627061710251     
 H      9.5172832349375049        7.8061146668016494        27.922542830121589     
 H      6.8104180002270320        9.9685373619998554        17.129408956698573     
 H      3.9879725251210933        8.6972329694762287        37.609441632740989     
 H      3.1754622519417710        5.4919934974585916        29.865126777122054     
 H      9.9131271909019656        6.9261898503998580        29.786452426030383     
 H      7.5712643881953161        7.9034910095272117        32.674427006850316     
 H      7.6935622827813850        7.5603345228383780        9.3453454309739197     
 H      8.5501958885185960        3.6633381531721367        26.732873593889710     
 H      9.9364512059684067        5.8476600566554033        28.046194772555797     
 H      9.6177391898099653        5.0122784586243903        28.638674004342530     
 H      4.3713434035563026        9.1637382209439284        39.664077121667269     
 H      4.7043236653368918        3.5805688069026611        2.8874780056980742     
 H      9.8726224643634541        6.6175020128500481        31.870008408330317     
 H      6.7601489201301295        3.2024076132137766        9.3494574991993176     
 H      5.5735973490856194        5.1608817450234312        30.482006281027090     
 H      5.1212574288688630        5.7492371165818010        6.4658526563764607     
 H      7.0984389326535826        6.9318125453023365        13.390508210906630     
 H      3.2636638390122013        7.0708513601324308        5.3749750423823128     
 H      7.4764512074569183        3.1807409014456245        35.559967198150709     
 H      9.9043617424089643        5.7092976042663999        17.060348513168506     
 H      5.2010250497735235        7.5400791618231651        20.335916267176721     
 H      3.7118373386095760        4.4326748895681796        11.770035560614827     
 H      5.6724932479801282        5.1261041567799657        8.5338005458687132     
 H      7.5744813705933982        3.3392979005536141        26.916474127431428     
 H      9.7923018580925394        5.4124453513133854        33.532311623059741     
 H      5.7940755217069295        5.3981538629079573        12.775171840140807     
 H      7.7392719878495670        9.7696380718531977        15.320215395735357     
 H      5.4483459764575635        3.2120437844082161        35.875813039170858     
 H      3.6286278786117796        6.7896610256686296        37.106817205009087     
 H      8.0137094164606246        6.7172236356160520        26.496297485193743     
 H      8.9281173110386565        8.9968754991716811        29.575003486833818     
 H      9.2605648856736789        4.5707520973820843        39.578538925927873     
 H      4.8337001493660594        9.4198049369216399        17.492068781645589     
 H      9.0845914183950764        8.7111381101776608        37.960704154768052     
 H      3.3596864075602579        7.9487214663705199        4.8391344333457891     
 H      8.2179728165281123        3.6479334482168291        20.033206817396533     
 H      6.0779315114698278        7.9847822112047364        20.804922682877784     
 H      9.0291356599015700        8.8149372587898078        4.4109316759872428     
 H      8.3815132286014311        3.6176458493825310        35.230724479867426     
 H      5.1963800197314667        9.3388092035968615        28.510567587481159     
 H      5.5265848493923944        7.7023717556635685        36.692965510651383     
