         201

 H      3.9908588069667066        5.6529830548827444        4.8245645969299256     
 H      3.8707346080359750        6.3690406776537847        35.285386612279176     
 H      7.0142877279344011        7.2953249653800833        15.186801810070103     
 H      4.9151327567387231        7.4478628745715030        16.626086648006488     
 H      7.6137324452358479        5.1885378442682555        13.399661998154686     
 H      7.7155471913780129        5.6171055594957995        39.514723471949132     
 H      4.5068791768469527        4.2180446300008212        9.7366717135991827     
 H      7.7374131810286242        5.6372477831544368        24.691646633409942     
 H      6.4729914559139647        7.6090483944414693        21.681525658084588     
 H      7.4349058411506137        6.7144455773142830        1.7857002364290981     
 H      4.9547698998582330        4.0136297042573483        23.874717022413947     
 H      4.5953792890061784        4.2598183290910310        15.817775511344735     
 H      5.3404343481705077        3.7986973170734761        16.731327843285580     
 H      6.4341004892601168        7.6198429265174754        26.310128874768726     
 H      5.9011227958993953        4.7309531092132442        36.482466095028478     
 H      4.4447257414277965        7.2003936546870495        23.329254224538996     
 H      7.4786828553867233        4.7473223937595304        8.2364833701831444     
 H      5.0236888044797876        7.5897500709874359        32.795913679571861     
 H      5.8625102512428331        3.7659803497186606        22.920212215829171     
 H      7.5004569658245535        6.3508402427867932        16.440996406320178     
 H      7.6606079592762457        5.7871893522625877        22.955427336333095     
 H      6.5244742784945950        6.4957402611290984        4.1869124477373685     
 H      6.5425345457528810        3.9467514216920647        28.862451226955223     
 H      5.1991955883603156        7.6245293304461166        24.006540309700156     
 H      4.3598041134970718        4.3187466367621621        33.938494367952231     
 H      4.3964747143614362        7.1932513868821228        31.723925384534937     
 H      7.5093295559138804        4.9132126554135400        16.004560123566250     
 H      3.9254772695775411        6.5643517301133647        16.939080761574239     
 H      7.5749670726319689        4.9887122167124991        4.8156015791065760     
 H      7.3436398750510268        6.9345581710060848        37.419260044363149     
 H      7.1506029002420632        4.3742049088576120        14.751374325474085     
 H      7.7256116217663235        5.4463696054342883        17.015920488693929     
 H      5.2109347982391006        3.8280149332550590        31.200860485685535     
 H      7.5226681840962488        6.6465114246524930        35.814538419470310     
 H      5.4814316163072307        7.7168542471859736        27.034498560135674     
 H      6.5275699408500047        7.4936626874684293        10.620167097172166     
 H      5.2772912251706039        3.8118757130140826        39.665331739061472     
 H      5.3834759885444878        7.6762641221920296        12.885833321489814     
 H      7.2686760764406353        4.4655502552946738        10.736563115942380     
 H      4.2424472980614478        4.4729730741070819        24.730440315402173     
 H      3.8461882501836531        5.9192337327248437        22.645285024893809     
 H      7.2151788129603682        4.7976785754292894        2.3433548096941084     
 H      5.4800105352465041        3.7767936718091693        20.449358735971177     
 H      5.6534839844488385        7.6777493420364564        30.987851280871066     
 H      3.9848473045463169        4.9409014774266149        34.684840595891870     
 H      3.8764083983166620        5.0740849386902722        21.881794486024365     
 H      6.9214744352943605        4.1343240081223191        36.521172563252975     
 H      4.2690329468077772        7.0407228918922113        1.5414353154346447     
 H      5.4810365895967079        3.8038693735751528        6.3446445612980291     
 H      4.1796542140577415        5.0571096969721410        30.297979613949813     
 H      4.7559451059397224        6.0201631438737193        17.893391927662602     
 H      3.7597442350002965        5.8420418782315933        37.223834939256569     
 H      3.8283551079592688        5.7581518523135982        25.286556086658216     
 H      7.2577482251944803        7.0338102389138664        22.620997603231551     
 H      7.3680358772789925        6.7087544317704912        5.4274704006463841     
 H      3.7825500012861539        5.8884006151728663        31.149861454219874     
 H      4.7601426830020088        4.0781291044472026        19.760110627206640     
 H      7.4464704196303702        6.7271183873281251        13.935910210677294     
 H      7.3552358875039960        6.8647073054471148       0.76800457352966156     
 H      7.6073938373346639        5.2415511830306611        25.848944595419429     
 H      7.5214605761299129        5.1299065456293818        35.685954526321190     
 H      4.5293055670654958        7.3177229900972529        35.291453588004423     
 H      5.5815074521018637        4.7753856477156296        33.485960379099232     
 H      4.9586725455286320        7.5743636581442049        6.4006731816207099     
 H      5.6584320362035463        3.7711835859949354        12.577791246487770     
 H      4.1368264076867121        4.5953774430888794        31.329713650468456     
 H      6.7823147439113587        7.3983313241865636        30.741107443729138     
 H      7.3159371956812658        6.9468085528683519        25.154037179624247     
 H      6.6287505513150426        7.5133064485407193        38.126942378241900     
 H      3.8382404709657818        5.4207674625387687        15.460751488720717     
 H      3.7889835527369677        5.4035772011059571        1.0712458760642054     
 H      3.7730748072710028        5.5090248949771823        33.719417226138326     
 H      7.1135812996189323        4.3305103792019422        22.532300931753763     
 H      4.1117372991338330        6.7310168090029938        32.713807007496648     
 H      6.5796441027696053        7.5480587594145518        33.377991837908880     
 H      4.3769244426853966        7.1133321727140570        5.5202166041516350     
 H      4.3106618593536883        4.4805408372108202        1.5608097817969502     
 H      7.5516951723205219        6.3904213144145263        10.261760920445317     
 H      5.1016232505037848        7.5787676741409085        2.0547215979883693     
 H      6.4088990294197812        3.8966853291704275        25.913996470991023     
 H      7.7224494083367761        5.9069731699110370        38.429190971614418     
 H      6.7352566910788116        7.4392530802226844        18.814742323568126     
 H      6.4671547237851064        7.5461905456043343        16.128303017152135     
 H      7.4018655193050842        6.7444956455205034        19.261257400518822     
 H      5.1238927645403747        7.5437700812236477        38.658778022943309     
 H      7.0293697972975870        4.2332478013109966        1.5200572206867784     
 H      4.0615649167896803        4.7185786518611881        14.783970816969740     
 H      6.3281999002712297        4.0822965211277547        19.107262390172174     
 H      6.2869634854524756        7.6623769192533642        39.725578886096038     
 H      7.1507557056590869        7.1355224215185613        34.153734407827478     
 H      7.5759024537240718        6.4599752417722272        33.023387067957415     
 H      5.2318630099180998        6.7189879246343098        27.517549325202648     
 H      5.9865228214841464        3.8309299750688610        17.932403305724474     
 H      4.2073341484428566        6.9323039079653928        36.206715815730966     
 H      6.2084668692838729        7.4432297175750826        29.877997972966028     
 H      5.9709413028792744        3.8447166262018104        38.941901435122958     
 H      5.9605160161697741        7.6824964033991883        11.700474553618536     
 H      4.3998037111766282        4.3083061201177930        27.353250440524391     
 H      5.3814920361125695        3.8341819741780045        3.8070286072670445     
 H      4.1471358957220428        4.6592260432945016       0.50040434248882570     
 H      4.4914839513868356        7.1886497353989256        17.663560326576473     
 H      3.7647477279166441        5.6708594028847408        17.998946783219463     
 H      7.1780649994601191        4.4474430323610292        25.090160754870688     
 H      6.3760255570139917        4.0865165611842516        13.892293186393776     
 H      7.1065445350751117        4.2989493802849141        29.613282954542608     
 H      7.2968948413258135        6.9826907880897826        11.430785110973410     
 H      7.7178772110755780        5.8064814568178864        20.449094640375176     
 H      5.3255126481861916        3.8123806743071320        9.1360989174468568     
 H      5.8905853508868224        7.7345441691233932        25.328042370926592     
 H      4.2697599997633038        7.0933041835112496        9.5553057250148772     
 H      5.8899289573302402        3.7615018295897422        32.958863099609609     
 H      4.2313473975082339        6.9194124311704801        6.9791205112261805     
 H      6.7055613452980136        7.4891921207098822        4.2510140080801335     
 H      7.6067433139484271        5.0383832811385147        19.595343767995928     
 H      6.6055403723617472        7.5382971591589767       0.71478590393542196     
 H      6.4123913009397162        3.9454176515618147        15.362405172265968     
 H      5.6437980563685777        7.7260009951492856        22.432629068701324     
 H      3.9205323424771943        4.9484008722845081        25.977877200189265     
 H      3.8180294694200478        6.2278510214929579        8.2357976213978645     
 H      5.2341380299869034        7.6460102883695074        36.010124482347152     
 H      5.1194706408121551        4.1128560538798569        28.061641909930664     
 H      3.8623278159256396        5.4493480793879829        7.3304019860301057     
 H      3.8873555218835740        5.1978075457129131        38.053453302934614     
 H      7.2339543455690674        4.4125606010137828        12.054650517644950     
 H      6.7953974414642699        7.3695872317181417        12.457935934914845     
 H      5.7825219302649655        4.1606345024854869        2.3895541834658509     
 H      4.9427423267265178        4.0675446744183574        13.338184019323579     
 H      4.3657372487454937        7.1656071617167942        20.336927738150614     
 H      7.7229928224676687        5.8924641732885163        34.883903118432215     
 H      4.0474122841516254        4.7597091115337991        8.4252525850853726     
 H      6.1631716297983887        3.8029766758829480        34.011335280495523     
 H      4.1393296589231197        4.8627939056978358        4.2070575765428844     
 H      5.4573120835028153        7.6930861347489925        20.977257133794339     
 H      3.9393477055069952        6.4752447393234194        18.757484745858910     
 H      5.7801989138439778        7.6797483884655486        8.9660016382129655     
 H      5.2373662429890935        7.6680847008279640        29.982993524000715     
 H      4.5309363334953883        7.1272959549972583        2.7950080791640639     
 H      5.8042870448941413        3.8831565111064013        24.634492258016348     
 H      5.7854177080763494        3.7945159458958702        10.042794282122470     
 H      4.2764869300720481        4.4784147807421260        12.220530717293910     
 H      6.0043391454057806        7.7321355131374618        19.714516553585550     
 H      4.0038555738363248        6.5721744897299628        38.764567169508744     
 H      7.6381781540913041        6.2920475515369541        28.126580096798744     
 H      7.0281983990809547        4.3350495130290980        7.3389342474804051     
 H      7.3402855155695148        6.8947726288047742        6.9240114052213277     
 H      5.1494997143180550        7.5323797044814018        9.9588333845738770     
 H      7.4763214124261657        6.7513262624352368        29.026642392140957     
 H      7.6246464995536254        6.0316635489290160        31.426662247468158     
 H      3.8028638748569978        6.1581253358449466       0.36623004868894010     
 H      4.0264961786061439        4.7591341631100637        28.793298556559844     
 H      7.6493803384018442        5.6301635118180746        27.350171682486273     
 H      6.3370588296828334        3.8488583987661866        21.749874386693470     
 H      3.9221206550568253        6.4994621416718950        10.724309060456978     
 H      7.1020683842938963        4.2918746925116382        18.435693346143694     
 H      5.7531881875924800        3.7673780388616702        27.235991374635734     
 H      7.7471347986404568        5.6449994235590459        7.8092483472643002     
 H      7.4914846345757118        4.7751901083306576        38.944709878604776     
 H      7.6474055695998544        6.1972805572706360        4.5380551316475657     
 H      7.5500056117604570        5.0329653168118140        21.096838146321279     
 H      4.2287972543872145        4.6327187148992586        5.8858929167211844     
 H      3.9244835836295864        4.9510035417196532        18.850381368347758     
 H      4.4620020612066096        7.2372846328791800        39.392989471878373     
 H      7.2746063444536899        6.8172318606112183        17.757786213803740     
 H      7.6170185983371459        5.2718031532251457        28.461638472905374     
 H      4.5537425832574208        4.1571885671579754        6.7717710164946201     
 H      4.7042180015295045        7.3349009365231899        13.956894663806942     
 H      4.9036448933478392        3.9607665983297524        2.8830913464302999     
 H      4.1894359351814350        4.5366476145023551        37.301423295403360     
 H      5.9816665776602624        7.4046906017931091        7.4243709534341509     
 H      5.7765621124095130        7.7286284297822876        34.322524431820035     
 H      3.8242330960426725        6.0243175148038297        11.812110453811663     
 H      5.5847864044533617        7.6513820779486581        15.409786195026847     
 H      7.6111464445823653        6.1307936306101141        12.844236705036145     
 H      6.8342602459797970        4.0773207134542426        33.253150578716927     
 H      7.7038972727992840        5.3967178183298001        9.5368690198949260     
 H      6.5862597722553282        4.0727916014314660        39.991295672852210     
 H      6.1765141277176925        4.0240694120232581        35.808995247152808     
 H      5.0811193686790359        7.5617910783847275        28.478986349037108     
 H      6.5018459676739395        3.9759495721793150        4.9120651768918018     
 H      7.5131792623317688        4.9259506010607428        30.955433281869933     
 H      7.7448742185556227        5.7703389841329020        2.0706510977690775     
 H      6.5288265622678514        5.1481139090512924        39.129956416814480     
 H      3.8882110869563271        6.0687131285741271        3.8504003843560035     
 H      6.8916988059168798        7.3592422004406775        7.9862116612117475     
 H      4.0567373376877738        6.8118262608784823        13.257864612174608     
 H      3.7939896527213515        5.6694467522494252        29.566284643880564     
 H      7.5868439927536429        6.5319836239411551        23.658744706528910     
 H      4.4257419401201501        7.1957913796899078        24.745041430191776     
 H      3.7559960553119973        5.8798338843893418        21.264307712162889     
 H      4.0109952407272065        6.5227689399518214        23.982444183246081     
 H      6.5832186867761298        4.0043338214687454        11.313034108611001     
 H      3.9443645939060201        5.1670723620626546        11.144681118424382     
 H      6.4676730298803440        3.9221454214604821        30.457422029358252     
 H      7.7284743897229564        5.4995022239661440        32.337088022330192     
 H      6.9208791191194701        4.1290396451135134        5.8774480788860251     
 H      5.7771029374988476        7.7287480978803149        3.4743796387559667     
 H      6.6313454755772110        7.3510102335832972        36.663108478226981     
 H      5.3434596781647929        3.8008651513518226        36.454656827635127     
 H      4.2214132270982141        7.0143361929209602        27.489394845895269     
 H      3.7892882999908375        6.1442963788473728        14.383031422031653     
 H      4.2297108943208803        4.6194380191844315        20.478043317081124     
