         452

 H      4.7968019151694259        4.1414791390438861        19.674754013379243     
 H      7.1438313690231645        7.1128973859898190        5.3338795940410417     
 H      5.2493055697441369        3.8140467072095894        10.790903175459539     
 H      3.8389905781485494        5.5374959351595683        26.923821716369517     
 H      4.9323755583657318        3.9351667556758163        24.680412387476629     
 H      3.7721439368367351        5.6572901850500124        24.363071100470503     
 H      6.5423597542996790        3.9333919302113496        19.847543244730051     
 H      5.1077804397196864        7.4676338353232570        35.162704268008191     
 H      5.7045981335259386        3.7866569820507663       0.34379562683864229     
 H      3.7625846403126961        5.9287483730445460        23.397438858150370     
 H      4.1109470675851671        6.8234209603082228        10.598336791470533     
 H      7.3550563150465660        4.7219037580732328        14.231683859471280     
 H      6.8217033121077559        7.4274980160868491        12.944895023967307     
 H      4.2557456035291477        4.5892752041748519        14.304967514457363     
 H      7.1952643556814442        7.1307202028757590        6.3589860612874176     
 H      6.0071981093232578        3.7839058869795350        12.288515803557857     
 H      4.6380628854864074        5.6001463326216587        22.815732306611167     
 H      4.9787989798511667        3.9248098980755106        13.705715116834581     
 H      7.6233710105883192        6.4400808535735665        37.337645755225040     
 H      4.1072658021515718        4.6551622361205656        18.125026168565796     
 H      6.4223044429471736        7.4906432236035556        34.048983494332191     
 H      7.1499546847113313        4.3241172236508438        24.822948786701993     
 H      6.7056504393260257        4.0869523006896369        13.760565305396842     
 H      7.6846927221630974        5.3377406994752636        30.292546641638275     
 H      4.8813641043432323        7.3997919556757186        37.741081728546305     
 H      7.1064803717865717        7.1903923694831180        32.208400179248208     
 H      5.1084268639579662        7.5938125195351596        32.638861634425886     
 H      3.8448165970797974        5.5293687895687924        29.493979763075512     
 H      7.7072528063889427        5.5793173014414092        28.542299229673315     
 H      6.8847571572006467        7.3073355290548596        2.7144238207704001     
 H      7.7058930104925567        5.6207207338782537        39.764974374144039     
 H      7.5976962533029191        6.3290480683109873        3.9726048555824263     
 H      7.5388035445959130        6.6351445098295718        32.986199349325950     
 H      7.5232705658730437        4.9777728626774858        26.773023452793613     
 H      6.6721301446170589        4.1233140874286285        16.831557291444522     
 H      7.1031809219867945        6.7852135458090004       0.79339368971070157     
 H      6.4990341840937234        7.6003028216688620        27.257534085401584     
 H      7.6782911195468762        6.1847382351624676        22.535861409791405     
 H      7.5406364015510503        5.3744467280490724        19.915087707116090     
 H      4.5201670146402684        4.5438624485987598        39.187796997161442     
 H      7.6462257330025887        6.3076803646991078        34.715936187057018     
 H      5.1461283740392432        3.8643824699033353        1.9086922697351167     
 H      4.1510937841779834        6.9240937580835933        35.320615678280184     
 H      4.0315694071624453        5.9702360113395549        32.880020054717015     
 H      4.8318658683177107        3.9796547605189136        35.806171812364120     
 H      6.5523047649039414        3.9915619945454712        7.2574133205975331     
 H      7.3250467712839145        6.9722207479111322        9.3880273986201974     
 H      7.3245183587792999        6.9360247456619168        33.948657036819519     
 H      6.1213670818329735        3.8937001047147644        11.288946239666190     
 H      7.0070383229376878        7.2951622863809940        14.994261082842861     
 H      6.4778363157536880        7.5663242447009420        38.388096865474061     
 H      3.7544972588757730        5.8488870603333503        21.508298052549634     
 H      7.6831018027518834        6.2269018796898052        20.433819117864640     
 H      5.8465091301875134        3.8044837480034270        16.344509377356445     
 H      6.3414373499362711        4.5613072692094745        5.2826660561876579     
 H      4.4907910537497742        7.2893404040746290        22.468049309718854     
 H      3.9518465047635458        4.8808570410123790        26.165794141815581     
 H      3.8851549421972691        5.4844573859054870        16.695586737852192     
 H      7.4738147737694343        4.7728958820477514        2.7407378741132487     
 H      6.9366616966312735        4.1505081033064615        29.268751199998576     
 H      3.9292975629440461        5.6642471752682448        31.172897168318357     
 H      4.5248431277756831        7.2975416006577989        38.689791544020402     
 H      7.6330458092874478        5.2207455378276189        24.988584467590588     
 H      6.7979522728943618        7.3713920923846201        4.0004703562962804E-002
 H      7.5854619752879673        5.1733533353026928        38.870906861751934     
 H      7.6028669967209668        5.2752260609216366        8.3676684247940454     
 H      7.7034805907624753        5.9631721665644708        26.905926509597005     
 H      7.6260573456583565        6.4058701891803285        1.6068232088884196     
 H      6.5368074298333143        7.5849813525809706        21.450894750434397     
 H      7.2538492039563778        6.9642901851710324        8.3742157376143247     
 H      4.7029117580509094        4.0462145865774044        21.974664503091326     
 H      7.6008304298620866        5.3743019024226344        18.900607258070593     
 H      7.5179457859742502        6.5095352662228780        16.488552968254563     
 H      3.9471738503620375        6.6086586133790313        33.677953239925706     
 H      6.4066031216312140        7.6195890637412553        5.8758646134531132     
 H      7.6798555101786228        5.2705900156803489        21.938038458996783     
 H      3.9273249278038311        4.9978466274822138        39.923960181420945     
 H      3.9201493768944635        5.1273973267947204        27.834611322215714     
 H      4.0650223750557855        4.6913390523330127        19.137301808602672     
 H      6.7287956561127782        4.1750863369802724        2.3064594494980901     
 H      5.2120708761145096        7.6041296944806911        29.976292873540718     
 H      7.5895961941124099        6.5167804927112734        15.480979363859195     
 H      7.2716244334204561        4.4575213514535870        7.8906308082793322     
 H      7.0910519112353523        4.2683485150725415        1.3438165746577868     
 H      4.0652722174827245        4.8442333036066705        20.171570972303989     
 H      3.8343987737057144        6.2411151748694085        14.102331758809468     
 H      5.4513702309477088        7.7071440714197319        7.3697919439182247     
 H      3.9000322833456726        4.9995892090465937        30.385952431577159     
 H      7.3770148243841822        4.6036995200352955        28.437722128723603     
 H      5.8552658110845153        3.7531611432563334        4.7504127349668606     
 H      3.8271417311568077        5.3137181534843601        36.434074827554142     
 H      6.7267807170266192        4.0051503860544635        33.473003172880418     
 H      6.1218120593791561        7.6031472850565756        39.329441639908907     
 H      5.2781388793864243        7.6859597017867474        4.6184809630951316     
 H      4.1958192762181028        4.6317643485817133        17.123104334209156     
 H      5.7178108790696838        4.0585379459875845        33.290185493668197     
 H      6.3428194268377389        7.6455687545746782        20.426406893338637     
 H      6.1833735778744066        3.8568675987401200        10.278297474768303     
 H      5.0907434110018004        4.0399074608334304        12.714616931858030     
 H      3.8722006274207912        5.2454488255149689        12.611442139925428     
 H      6.5905756684857266        3.9891767055053418        28.286538458348033     
 H      5.6325613889618049        7.6666759162519531        29.061643381620190     
 H      4.1453463116361693        6.6604583641166037        23.986783960852300     
 H      7.3429017687106732        4.6041971471240153        25.774196288931460     
 H      7.6026169941236912        5.0453130529490764        11.313220759148553     
 H      7.4730615188477501        6.6675592673399997        28.810322294837217     
 H      3.9150845577424733        6.4079006178136551        4.6161255570934125     
 H      7.5777146719369464        5.1031552548885619        31.947621916068233     
 H      4.0574322658998110        6.8113793961261129        31.057942203556834     
 H      4.7021341286446638        7.3396304118253148        33.560317909473319     
 H      7.6736812055625201        5.7650310033977288        31.197657952322896     
 H      6.9655360852939054        7.2113914697157506        1.7049889595194743     
 H      4.8905755023870014        4.0288014701650017        4.0972270599573264     
 H      4.7936184346282884        4.0646937948871686        7.2380358769403550     
 H      7.7388092357383007        5.6390382630916926        14.931428752499517     
 H      3.9766139380669432        6.3493116992377958        38.833042443907026     
 H      4.1206526578494209        5.4609458579557062        4.1474732726972512     
 H      4.7050139598113097        7.2693376375795582        21.446521858273808     
 H      3.9247720010361902        6.3463614883966688        1.4610295158345663     
 H      7.5879695671184448        6.4836271104795049        17.519600928990652     
 H      3.7983551754244198        5.4061389370699668        14.687547019763025     
 H      4.1440384708104299        4.7144609938755364        38.257607627383607     
 H      6.4376963908287248        3.9405657983410411        21.672509206795819     
 H      7.5838920349595247        5.9433314695363242        29.491778512039350     
 H      7.1393038272072928        7.1643863028710442        4.2865258169225138     
 H      7.5376756625043004        4.8902177152946464        33.594158637747213     
 H      6.8302330396618895        4.3120388389667248        36.061373348552522     
 H      6.1344344985473400        7.4818883742191984        16.428787985688974     
 H      7.6230957878615389        5.6379779921558439        13.908807328592673     
 H      4.5663016727855128        4.4327912567174597        11.227123059921439     
 H      7.3058442960828707        4.4953123941854853        4.8218509494762030     
 H      6.4371538737909431        7.5724376020156008        7.9056812390762259     
 H      7.6456266624142701        6.2834035990914394        4.9948350127655639     
 H      4.3145809716838546        4.4080169389833079        12.198708012189538     
 H      3.7965944329862382        5.6556922280132005        7.1433730538200422     
 H      5.8407050686688011        4.0864024965715755        26.460039043601085     
 H      7.7145480068840291        5.4039560863122436        4.3595627116292759     
 H      7.6461144840186241        5.8923621029799751        11.863373328246141     
 H      6.0957175735149969        7.6963795502932459        35.016874166329799     
 H      5.5052409383691678        3.8344285711833495        21.253563169537845     
 H      6.6473324875834194        7.2665543786765170        35.807082914406919     
 H      7.1643291414057115        4.3686117175285917        8.9146112289146799     
 H      5.6405082000835138        7.6643780186791073        10.427802169097310     
 H      3.8310997609746811        5.4043439514429519        15.687293029508099     
 H      5.8888705704002247        3.8574927754710293        35.914905728553244     
 H      7.5210648199164796        5.9350554393648673        33.725575028264160     
 H      6.5738661453320812        7.5221203172847577        8.9024285398361425     
 H      3.9857190701852359        6.6632497558718367        3.1183163932748306     
 H      5.8852158885094070        7.6551730335509447        12.463059203791003     
 H      7.1112057745618298        4.5763298609019198        32.710963869263345     
 H      7.5012183949887730        6.0573982244793738        36.408721517010726     
 H      6.5983504601960163        7.4660032921605817        10.901214283967789     
 H      7.0264676795665189        7.0305101069339226        39.097914942708222     
 H      4.0887797980431957        4.7058445223520691        24.426985147860123     
 H      6.5309100592049028        7.3663705889021198        9.8960519209097910     
 H      7.0945893943790024        4.3759816055312202        34.336707426463242     
 H      4.3649566830545146        7.0450438555513664        36.949943311893755     
 H      3.9508531534989122        6.5547997679423649        6.6951795848568239     
 H      3.7666259619791824        5.8416049892369566        20.476215583173598     
 H      4.7643282704617436        7.3040350015085913        23.474484058856248     
 H      7.5382110221778253        6.5776972062008001        14.460784869508785     
 H      4.9351487187097369        3.9527284482918921        38.489683257732331     
 H      6.7903251693074553        7.4574386148999592        28.957390823295555     
 H      4.0852044814837347        6.1993043507395527        34.593520187989782     
 H      5.8032521730879623        3.7577924870781811        2.8930440035243197     
 H      4.5302247035030314        7.2308553297602609        6.0851511582393396     
 H      4.7328406285900231        4.3340449894190645        8.2306214244914635     
 H      4.4062109073538700        7.2171796732176832        5.0712621032778449     
 H      5.6963563845421126        7.6995393968068511        9.4169513807688396     
 H      6.3245671243769399        7.6596062592516345        36.704031233950325     
 H      7.6921110215057409        5.4350206219347239        7.3747744641601294     
 H      6.1035103209994732        7.7157445904753947        25.599723523821044     
 H      6.1050182503075749        7.6352073977591264        32.458993865510720     
 H      5.8084536068307120        3.7555883254905464        17.344304195783462     
 H      5.4893954060921013        7.6640234780386676        20.962960495058795     
 H      3.7998404806620822        5.6030873670367951        17.721702175466060     
 H      6.8768864817967117        4.1126877640620920        26.531267212699237     
 H      3.9114952615704519        6.4762585687286398        15.121986773716030     
 H      6.2451729757684458        7.5497918056987192        18.433476284022507     
 H      7.3113575286069743        4.7687259356488241        31.031971986960592     
 H      6.5761338052230007        4.0296740728684748        6.1923205113358204     
 H      3.8783793149052177        5.5009468672039290        6.1584428124624058     
 H      4.6680537553859169        7.1378192032795651        18.512957575569015     
 H      5.3889521837053351        7.7145043011297041        34.228280822203118     
 H      4.6941073932684834        4.0757814870027875        33.149749150242748     
 H      6.8592449561077409        7.1927773761280553        37.518950772248054     
 H      4.1058141247132260        4.7205236344594041        35.600982301221990     
 H      6.3757429403221559        3.8518242712532405        9.2566274865544393     
 H      3.8896081616371743        6.3309972589020118        16.118060569287707     
 H      4.6377717367125708        7.3119849250022364        19.519640634126667     
 H      4.9904535478140213        5.1008140121979100        2.4767050033248705     
 H      6.3434453635048893        7.6506011221993173        19.426297882681769     
 H      5.3661689557771997        3.7959851167528642        23.065185134819782     
 H      5.7167201396828649        3.7570091956638674        5.7432354559381391     
 H      3.9827450403229681        6.6844075081158580        19.974737550904802     
 H      4.7537703477621518        4.0533341029654038        6.2143104007544681     
 H      7.4867150916668130        6.6876734609910633        35.630998784742580     
 H      4.0582461093835356        6.7831426569948396        8.5220263714300195     
 H      4.0154227964780427        6.5028644099105133        18.986172588845488     
 H      5.8959609822943602        7.6998311691858028        30.724043084109752     
 H      7.6153063969117074        6.2125052827445160        38.956430885968452     
 H      4.3132937723213312        4.3607625667732703        32.265256055688539     
 H      6.0720808124292658        7.6507243360158990        2.0220352597155133     
 H      6.4951361864020933        3.9436640353571195        23.718965566539943     
 H      4.1276351942288718        4.5911781539614456        4.7903106285060177     
 H      6.7424429346725399        4.0233457375433854       0.43039727514498960     
 H      5.3579977929165743        7.6922486848839098        17.994091809973973     
 H      3.9832679711214527        6.4120866638204763        36.254750792205982     
 H      6.5267675258265792        7.5922815323620769        31.493628696877508     
 H      7.1963545090789891        7.1135191964999596        22.727750248219209     
 H      4.9207320031457593        3.9963400793397925        31.514921150284366     
 H      7.5477797887543572        4.9498316289857289        29.372274098391294     
 H      3.8723272210832520        6.4126001967256192        25.098751189197973     
 H      4.4872391758879786        7.2541273766512475        4.0337160579084692     
 H      5.8911618798050442        3.8237664076987214        29.001143565160888     
 H      6.2650089217487626        7.3727731933379719        29.807402078746289     
 H      5.6639026877805900        3.7702340448923404        6.8264219974111251     
 H      7.7193749075858316        5.5362037620103237        16.824960962187870     
 H      4.2902809898699106        4.5423143610544576        13.204759320998951     
 H      7.6756993421046324        5.3370175285677597        37.081818114009465     
 H      6.7110552925484210        7.3357318614421958        26.301241516265016     
 H      7.5555290990108404        6.6091113434070516        39.906032791995557     
 H      7.0551429673961943        7.2160284699356732        34.891949958994338     
 H      3.8021886068808204        5.7952437134767241        35.486423662130242     
 H      4.2386427644861477        7.0446769814951802        13.640734338595008     
 H      6.7436142134867909        4.1139811555410377        15.824748929497321     
 H      5.7551428080139893        7.6463764734436106        11.437567295414450     
 H      7.3085295128083079        6.8397484468378567        11.398124373421762     
 H      5.0265837317188904        7.5302999504000461        39.537076366908508     
 H      6.7822879773042324        7.1723718577823243        13.976759264517664     
 H      4.4450850991486588        7.2521582106075204        1.1895973871612882     
 H      7.6922353953886002        5.3486000035320176        5.3591197760572342     
 H      7.0984374836602075        4.3823726697283085        27.489121283639804     
 H      6.4714203853982903        4.0341162772339381        25.616727213057935     
 H      5.2291069784969038        7.4555692053110540        14.990738666488935     
 H      6.1019029570861578        3.7986693978324020        34.239747916095460     
 H      7.6644742614424946        5.2602413656440019        20.903100738235917     
 H      3.9796856713041842        4.8300468210067580        28.789716817321491     
 H      6.6853349031780889        7.1885246070680848        23.713363025798923     
 H      4.2501535984689927        4.4304875597298183        33.977099994157420     
 H      6.3683359200426199        4.9869755529155704        11.839846190401273     
 H      6.9857766956045566        4.1934712468792910        31.787482095520115     
 H      3.8212391690391798        5.4089802116006434        2.2459333694111057     
 H      7.5760758274250959        5.6697031717336417        2.3030520043108784     
 H      4.3316803744784389        7.1055658472336800        30.125438181081652     
 H      4.7351473138368680        7.4535414729355578        9.9721916560178041     
 H      6.1837476097467849        7.6936711921779963        22.942519765726782     
 H      4.0974547693537033        4.6411521482441920        31.324202856248071     
 H      3.7714074931707113        5.8313096662435617        8.1435631112139450     
 H      7.2038039355262722        6.9517741397412252        20.949566488532678     
 H      6.3410807276303656        7.5938719118566098        6.9039945196765737     
 H      5.8458904664766695        3.7643060202955603        14.219058613784995     
 H      5.4698562032409983        7.7301538556449492        31.658576162277509     
 H      7.5045175758221001        6.5961855773521316        23.551331989458919     
 H      6.3897075392202769        3.8580965819134119        32.543036702374366     
 H      4.7594711817261350        4.2916817958913178        20.667833988976518     
 H      4.5756317901839427        4.1532402238213466        30.562042525505746     
 H      4.2535289228008555        6.0991938630162306        27.645966381285085     
 H      7.3562120792218924        4.6609195636548995        35.275365027536957     
 H      7.4371492972484390        6.8095298726457640        31.331401232978141     
 H      5.4333908538047488        7.7207359313273640        18.999311710085845     
 H      5.5828424471421494        3.8188743031138115        20.247914706488967     
 H      7.6950438999552091        5.3285788909175675        6.3616765260616992     
 H      7.0941549530096664        4.2823320550608939        10.687856759902397     
 H      4.4616881294621225        7.2104807640782171        17.500442606063753     
 H      4.1186156278424457        4.6467237561833814        6.7118302596610144     
 H      5.0369087279422287        7.5253621677759908        13.009225885231150     
 H      3.7920745669766789        5.3486958243778524        38.993080606146250     
 H      7.5864155400780753        5.1009636757026415        9.4496271609953695     
 H      7.0162982275092078        7.1804127116816119        25.350547626700333     
 H      4.3772415241653615        4.6198590947316029        1.0068429657666955     
 H      3.9581416029002066        4.9499457397395377        8.7089743094336498     
 H      3.8130756805252402        5.3042585188035041        13.647394984344947     
 H      7.3826085557071996        4.6187572351367860        3.8266237809658614     
 H      7.0833616175147487        7.2278287269375197        17.035909152204951     
 H      7.2873245522053622        6.9713091613251699        27.067440584878238     
 H      5.0981626138486833        3.8766495290764165        34.074585769977212     
 H      4.2630222131176190        4.5247521211625230        27.096848774519394     
 H      5.0636238700566603        7.6148264169637097        14.010443184302472     
 H      4.2880157962473691        4.4040963052456101        36.618977918259766     
 H      7.5557464052662944        5.9699009784001085        10.845497330089721     
 H      3.9695588101408301        6.4078772980161016        22.536460836402433     
 H      7.7053376788593937        5.5540639501575590        17.915383886753602     
 H      6.5554563906901269        4.0041292010662861        35.107878363172986     
 H      3.8837609028407512        6.3962240746270025        5.6941386964478218     
 H      5.6665233919884495        7.7455876303930538        35.944768264638334     
 H      6.3978436326207548        7.6115353506203460        24.572893718905213     
 H      5.9481439965157401        7.5156893426111262        13.469985916536631     
 H      5.2324516681078377        7.6601940776429585        15.980568043869200     
 H      4.5948954791272998        7.2177347786511845        7.1239638295977512     
 H      6.2393667522628622        3.8229432738482245        27.358771012227272     
 H      6.6555567929405841        3.9757545661473714        4.1423084150753402     
 H      7.0237284017096702        7.2333372687802724        15.997473776941803     
 H      7.4246142174648542        4.7376715263513667        16.291810989608400     
 H      6.9918170773188715        7.1598896951022741        28.022388572859509     
 H      3.7684963766356070        5.9928890588026835        39.763404032181136     
 H      7.6709628752856300        5.6253097925110014        35.502560835601635     
 H      4.1240782915360228        6.7389385162388136        9.5758492181012453     
 H      3.8241006225185772        5.6129771261609296        19.502650603051741     
 H      4.1996245090049191        4.5349439190290068        15.327598546643070     
 H      4.9401555130026669        3.9400467963969570        14.726491193968805     
 H      3.7919829443209001        5.9605777813934226        10.147076366366361     
 H      5.8825964700483819        4.6191198732371221        1.7808826187067273     
 H      4.0117640263234504        6.6931549962208390        20.999877202102351     
 H      7.6212984741554948        6.0255329483181930        9.8372784383619525     
 H      5.8531273805167352        3.7831250458868668        15.255335626286190     
 H      7.6092966595178657        6.2729040676128704        6.8248654591989544     
 H      5.5078874456384677        3.7852057648751627        30.693967140266981     
 H      7.3320646493841348        4.5709468416096497        18.342165678098755     
 H      4.5767315827496722        4.1655224587205337       0.12196007005237661     
 H      5.3481949625494094        3.7951154089361534        9.6771341475909303     
 H      4.2582503196848203        6.9760222503615132        12.615188436088843     
 H      6.6553438213557854        4.0211870288593348        17.829640355154901     
 H      5.4740357291694499        7.7196245920826101        38.557071677333838     
 H      5.4221703278282867        7.6822864057234641        27.463317894197530     
 H      3.7808355538602245        6.0865320757585248        12.000694085447638     
 H      6.2158204627749081        3.8070437143150366        29.951488900967863     
 H      4.4886600111732342        7.1187102434110807        16.393259387757301     
 H      6.7229708056676873        7.2103522949690380        33.133740326130386     
 H      3.7983657586946360        5.6737106902034462        38.013529234625146     
 H      4.8414106604886173        7.2888275658205579        8.9903162709440920     
 H      3.8306194826422595        6.1768358742286322        13.099557254260882     
 H      5.4835061011585928        3.7793545706953040        39.320450232449829     
 H      7.6089152397808846        6.3123654077373690        19.433674683793640     
 H      4.4859567336967512        4.2280556976537156        2.6774943227467811     
 H      4.4661390467110751        4.2649855911165817        10.237036040753528     
 H      7.2970577817750373        4.5290236033391276        6.8184052371517483     
 H      7.7431870349550191        5.7342313864479362        25.891244620720489     
 H      4.4752302362075485        4.5998137557519696        29.636271240607002     
 H      3.7645261022112888        5.6305868540444699        3.2219906359400872     
 H      6.5026025861780505        4.1191501947727742        18.865148421264454     
 H      4.3655739657661439        7.1232504357355166        27.593185481124454     
 H      5.4486680455321057        3.7828538654245398        25.582785411213511     
 H      5.8657991425925537        7.7155559170137149        37.594909974161375     
 H      4.8087660522401618        7.3303325756004352        26.711182362664644     
 H      6.4663713377739915        3.9345677814517748        8.2584723975284522     
 H      4.9344883611905628        4.2017504323569330        17.704510074966901     
 H      6.2248722020244154        7.3537906457246258        4.9288484006383078     
 H      7.2957870171605750        4.4917320612268314        19.350468472223291     
 H      4.8146707748904838        3.9835825032908954        5.2056680613627426     
 H      7.4435313448173019        4.6882947495976914        15.228415519491492     
 H      7.2431749061401556        4.4295541596888466        22.303522760123581     
 H      5.3841341095574169        7.7062499833949767        6.3298706304330947     
 H      6.4086617124440508        7.5849337887005932       0.95921788237235528     
 H      4.8061632032090049        4.0234264156964015        18.680277799638379     
 H      7.4757871398403850        6.7166467330096378        26.118691343443210     
 H      5.5143636857178153        3.8103100832404997        8.6196305468199625     
 H      4.1868712799363204        6.9902031477893045        39.666279528363532     
 H      6.4512608741377502        7.5866715386137678        3.6572401316696017     
 H      5.3295659779377891        7.3131058867118304        36.830448546860879     
 H      6.6851709714018170        3.9957866296083804        30.852074747358223     
 H      4.6078749067737519        4.1215973436503806        37.551780349997301     
 H      7.5522753046275097        6.5657285294430929        13.449320132366999     
 H      3.8193883891976577        5.8435725159613181        9.1425935989438649     
 H      5.7313608700179719        7.7324259640196082        22.027986529432237     
 H      5.5375022997120960        7.6929613693430454        8.3741073611397834     
 H      4.0775610704669161        6.7138419948469625        37.860790029002864     
 H      4.9539200762276456        7.5201962381684755        28.338119703985722     
 H      4.1219065798213990        4.6003357612291502        3.5589004134359659     
 H      4.6684085341786785        4.2288878598581814        23.636272909669447     
 H      6.7892191373725561        4.2841543980128094        12.737659261440037     
 H      3.7652196655908856        5.6066296900249677        33.818589979428950     
 H      7.4145747014539820        4.6669138374500543        17.321348122892221     
 H      7.3766948860610508        6.3918667030149727        30.373051437613992     
 H      5.9627606515062377        4.2111302314814880        24.678836083274682     
 H      5.6878961543078521        7.7378542505924219       0.26513673218715789     
 H      5.2473458312811889        7.6813989179126505        16.995377990426164     
 H      5.3255457631974661        7.7010307035470245        3.5946901611233320     
 H      5.4263685936826143        6.7138856787597723        25.133644982593363     
 H      7.6825709549797381        6.1858601929109733        21.450952604536653     
 H      7.0008926166553236        4.1981305225128143        11.755644255740929     
 H      7.3131131586121132        4.5141944024971439        39.701673821747683     
 H      4.3656396969300850        4.3224239277907497        25.423138329991929     
 H      4.9607396585233063        7.2645461244958938        30.920332529820652     
 H      4.8944529573993494        3.9447906124221199        28.979379715425463     
 H      7.4706176286374770        6.7322605257796448        12.382871534991775     
 H      5.6858839602170388        3.8077998724486828        37.778160686667640     
 H      6.9085600340430275        7.2770760281642897        30.615725921545991     
 H      3.9618617735725405        4.9542574665120398        33.062905540685470     
 H      7.0988923126563597        6.9707887418362411        7.3591560931529969     
 H      5.6337532853555583        3.7601075010280431        19.245442808874060     
 H      7.1157726764564213        4.2891735509693163        38.710997216468371     
 H      5.3838812108105367        7.7143055108155183        24.799214930017836     
 H      4.4741504946473958        4.2577747038727649        9.2159801027858759     
 H      7.2776353048725140        6.8715863566005400        10.391762698501028     
 H      7.7288505933152392        6.0330278051594703        24.397989548180099     
 H      7.5542884959411731        6.5240366658645463        2.9374505970890006     
 H      7.7340636508656990        5.7317916935871214        12.878616063638713     
 H      3.9172212808478024        5.0615327458961579        10.716519976063092     
 H      3.9081623862407513        6.4375265676825766        17.117273658353451     
 H      7.1579284712492885        4.4636204585408388        37.015023279684918     
 H      6.6834761466543702        4.0339578704216148        37.821422185202216     
 H      3.8969995728466897        5.4952543495910060        5.1574775030789155     
 H      4.2352565847936789        7.0466373192449909        2.2049343617365107     
 H      3.9496061528902255        5.9209201840877572        25.997713421577309     
 H      5.3966113484051359        3.8234307458859513        28.118065085383456     
 H      4.9184920921272735        7.5363766501708227        12.012614139756582     
 H      5.6655041231306731        4.3718177831209681        22.153827312679695     
 H      4.2390602697571760        6.9136685409873087        11.587929416915307     
 H      4.2351878987500964        6.9990230932230819        25.947806888790307     
 H      3.8430510167252190        6.1650374922253537        30.286647846841976     
 H      7.4964552786851515        4.9102718285594200        12.304481151705733     
 H      6.1981099089131391        3.8023635334434567        1.2902407957957283     
 H      4.4889390081007141        4.2388806732044708        28.046347519150885     
 H      6.2030419592090542        7.6836958962298398        17.431681799194674     
 H      3.9086688796569056        6.3638833125791070        31.960776128336107     
 H      3.9415699987734820        6.5907599680459823        26.819665794617190     
 H      7.6375608905174852        5.2195283252944078        1.4033795812343963     
 H      6.4903175433887945        3.9134211889957804        22.718481171057960     
 H      7.6770719150280025        6.1230934160619412        32.137182432466474     
 H      4.1712710905122972        6.9729749816107196        32.773739688566202     
 H      6.0423521637113975        7.7094541842071331        14.457798999406672     
 H      4.8210755386058901        7.5168183331729024        11.012213086361442     
 H      7.6950556591461758        6.1871588480175497        8.8291879431065610     
 H      3.8775881763557165        5.0871573489461914        34.685132270378325     
 H      7.1376378636940077        7.0854276510233136        18.903480961073310     
 H      7.2313884812979712        4.4085498012984079        21.244974397620584     
 H      3.7525672219947612        5.6855772195785681       0.71938339925312056     
 H      4.7784341385048732        4.0280665885971727        26.345905408264297     
 H      7.5151122001574207        4.8403116550783807        24.003771468096296     
 H      7.1222100123142482        7.1412005890566208        19.958184909830894     
 H      7.2634594443772222        7.0282326573624712        36.580287566120148     
 H      6.3470805274716930        3.8847260210785528        36.859820403602441     
 H      4.5793879789672252        7.1587650107063521        31.842488099063218     
 H      7.6336463719005119        6.4112876888372270        27.855882762522644     
 H      6.4971739288675234        3.8981693907165642        39.423281508671259     
 H      7.4947645550982216        4.7771170683136850        37.914949428496840     
 H      4.6730601793394291        7.4270355328033357        36.066853674948639     
 H      3.9778247045280848        4.8638617922250207        22.999860492391626     
 H      4.5098213680821591        7.1766050547637086        24.973390990956428     
 H      5.0869376794725110        7.6317766747201752        2.5157643773872347     
 H      5.9028058021218568        3.8075703077211029        31.633410643800524     
 H      6.1284674042112242        7.6929951835133163        28.188380663363372     
 H      7.7472890313892728        5.7452727959183409        38.058952595037958     
 H      3.9623492167629237        4.8694654904513923        21.933078069348046     
 H      3.8116861245384395        5.2691178505573140        32.101696895599531     
 H      7.7445839483366177        5.6278126450392527        23.385213702225496     
 H      6.7157649200075245        4.0864606523298166        14.814718137313232     
 H      7.6908162444755739        5.2931233978347940        34.545730354784830     
 H      4.8597287788109815        3.9614926197927152        16.717778543501151     
 H      4.0104514834763965        4.8067971686808679        7.6995757411672825     
 H      5.4483456496358835        3.9697670577363318        35.016830162358261     
 H      4.1637002935061869        6.8523000990683638        28.550241574112789     
 H      3.7702429636588830        5.8772134590588463        28.500845878016158     
 H      6.1626001848667986        7.7058852626629468        15.453449228449964     
 H      6.7069707047822611        7.4700198858654687        11.905577570537647     
 H      5.3985507732777274        7.5737520347592353        1.2522579324725329     
 H      3.9285613556936743        5.0259123874060947        9.7095224606065980     
 H      5.2704538610523795        3.9659241678659627        36.790372865205612     
 H      5.0062292271617705        4.0770948285269322        15.730450477348171     
 H      5.0916260154613964        7.6206274892801016        25.784284894462466     
 H      5.6775846371751184        7.7130060936780920        23.832058029044880     
