         339

 H      7.6535308706298091        9.3167133455547084        8.2599340887129689     
 H      7.9701908318188153        9.4492555682643662        12.799437721301116     
 H      4.0879194768626954        5.5930170103707493        10.729674613490516     
 H      7.6138875612763579        9.6022225886301609        11.109485137305359     
 H      6.5874795934922759        7.3370948202572741        25.872787607282042     
 H      4.9007834725761672        4.3936230176847602        32.836639400682969     
 H      8.1414211621225672        4.1217794229384275        21.770653183008953     
 H      7.7419001561405860        9.4982234561957082        34.204753210198831     
 H      7.1154625667604616        6.6065325009548701        32.200291895347839     
 H      8.4135442840876813        4.3405978354704402        16.719643396657094     
 H      8.9755673522449317        8.6315119809024949        13.018598479030993     
 H      4.0816970786593174        8.0242575070566389        9.8567639206526483     
 H      4.6299095347586006        4.9140597115916789       0.72537806899977264     
 H      9.4622431559314251        5.5619488395869636        29.700812072702863     
 H      6.9302680082661086        3.7926411755517901        18.782906457403861     
 H      8.7487420894931844        4.5812162912722734        24.599329315470051     
 H      9.7160619412202394        6.3323075113787288        14.097968218773854     
 H      7.3367459820553558        9.6012100567345016        20.393330198746700     
 H      5.7860219485185178        9.5908705665766263        3.2405465922043426     
 H      6.2895739007915772        9.6937603556772558        33.358120445699697     
 H      4.4733879323943322        4.8753829549374981        26.946710310234312     
 H      7.1491978444924662        6.6513170582391057        17.391322255917434     
 H      6.4924124694000049        9.6981160054145690        17.715802058883380     
 H      6.3844487760359971        6.3092953964922502        28.573731422620206     
 H      6.7269617582923251        3.8413210373318498        8.4419262182594075     
 H      3.8958687091596929        7.5822145027503360        31.372700926175064     
 H      5.4680567558498829        4.3115152015954328        1.1083799500970573     
 H      5.8823083358915103        3.9794040827369686        5.8086913790794457     
 H      4.6209847788899125        5.0426334428418373        14.066595101865873     
 H      8.7414241833054724        4.5301053246880265        26.277418560884506     
 H      7.2513337697490385        3.9183619596747774        24.202441588312322     
 H      5.1070352606820739        8.9356457658677115        3.8495434038949576     
 H      7.9873184970068749        9.3985228377673504        35.304897120855557     
 H      8.9273674342195086        8.7797701555694054        10.467292475899226     
 H      8.5181195104593233        9.0495102284574767        1.5072077958052099     
 H      6.3974197777979374        6.1499018167912771        7.3371310629689424     
 H      9.5405677267601341        5.6823641162041243        9.2146064539010766     
 H      8.9704576722935396        4.8405650311914590        35.149197899227879     
 H      8.4680998700187864        4.3029581359334825        11.110452551383593     
 H      8.3863703473783051        4.2607305061184038        2.6860795194227043     
 H      9.6050524195975893        7.5164374367571556        32.936291427265488     
 H      9.6654175233734403        7.3495326590578989        12.481298022314430     
 H      4.9043202024317090        9.0987864017640998        20.746280908297742     
 H      3.9204114274890260        5.9805346551062701        17.269224172365849     
 H      9.7467744786308614        6.7140374952867017        32.146921450747826     
 H      3.7689589075652097        6.7933283894406973        22.273099647531726     
 H      3.8442792166041566        6.2489447331948744        7.8990475551555628     
 H      6.3482494331405324        7.0062554386503573        10.181388164965924     
 H      8.0001884810547654        9.4523004458468183        37.806665021876462     
 H      3.7862083532429236        7.1247254462581466        7.3257744737667574     
 H      7.2170175061931374        6.6146762963830934        13.688148542670397     
 H      5.3440524870815720        4.3213421141862360        24.286285871775462     
 H      9.3586829031896084        8.0051606831378077        6.6703005378654874     
 H      9.1926250178488242        5.1744216011891009        27.010882723918321     
 H      3.7527720206652222        6.6495711339333639        16.217919791669004     
 H      8.1256118503631161        4.2738219631832530        31.454469010498965     
 H      5.3675592457844141        4.0905024045288663        16.407517728119792     
 H      7.2822285669505966        6.7444533032639464        31.049953539415640     
 H      8.5925037435144862        9.1073734607468566        3.2224282070246164     
 H      6.2090533556923893        9.6216162236462353        27.388288087541071     
 H      5.1811565617471400        9.1086126466879378        34.580349135223379     
 H      8.9303391773493210        8.7923604083871130        22.477137227347640     
 H      7.4897379277581129        3.9079930026174647        39.684151605678210     
 H      6.7087851548697097        3.8361860181565985        11.562418801176223     
 H      8.2958743086966624        9.2091085757308679        31.354675957003714     
 H      9.6889207850593735        7.3246468864998571        15.077981910788226     
 H      3.8006002025062711        7.2569604620110244        1.0125598176470729     
 H      9.5567928837766249        5.7954020967134747        13.038028464173737     
 H      9.6886062482884530        6.3986832554877280        37.560118960432803     
 H      3.9932953171858845        5.6486926276767413        35.009552713780167     
 H      5.6650450979079663        9.5187291481892391        24.379307665809250     
 H      6.6524263909168351        3.8008676872547027        36.364719246160753     
 H      4.1021642898999033        8.0866586902266135        6.1673758610028599     
 H      3.8999933905582003        7.4290927071501924        33.218834146770490     
 H      7.8898654888548885        4.1127007315106834        13.837997844289804     
 H      9.4401169479340368        5.4316639257076558        16.913056575119668     
 H      4.7180949282247973        4.5495166436250436        1.7317282733387029     
 H      4.5831304591897073        8.7963467553100276        19.130023516678492     
 H      5.2241184926049149        4.1730807248879707        38.400604066306215     
 H      5.5765903082214452        9.3826641896409342        30.708584051436649     
 H      9.3486619676359908        6.5097359446943592       0.67168522232370220     
 H      6.4236256792805504        7.2123418560186927        20.030471005099461     
 H      4.6094598964422309        8.6808746467419198        9.2063629937218288     
 H      5.6629919291586370        9.5393607496889192        14.351593236167306     
 H      3.7937276723373445        7.0906862043245837        17.192821732233543     
 H      4.8964873417257326        4.5013602599629916        21.596759945454671     
 H      8.1789543531103028        9.3696770337274859        4.8817408007561287     
 H      4.2788457744598647        8.4410630496916550        28.765743210952003     
 H      9.5987653200934773        7.4728591776054616        22.058480113158829     
 H      8.4327866925040667        4.2944216328194367        6.3615567209902419     
 H      6.4132949402820447        9.6241166872197770        29.364259279700491     
 H      4.2913904698133871        8.4325720133824227        26.224510152297359     
 H      6.9490691956539630        7.2072396546129740        39.810874501221853     
 H      7.7726876667979319        9.3222773267560441        3.9541833367759365     
 H      6.7073218205616554        3.8191291123216877        16.858001800137451     
 H      6.6796151804522115        3.7736044146314698        29.317553476102262     
 H      3.8009102824622842        6.4062619622837795        24.793154800911637     
 H      9.6537080801382640        6.1111921188051124        30.519028332726659     
 H      6.0999151530232609        3.9067173372671298        3.8551518424519777     
 H      8.5666358861263152        9.1203898812049555        6.3791456733803926     
 H      8.5619361934558516        9.0950137151937458        32.453849266645207     
 H      6.9536628001261827        3.8053104115483336        14.195968160002966     
 H      4.1951770518294955        7.8169517299438436        8.7426605232009678     
 H      7.1398661320198951        9.6973911731694056        16.379496664883032     
 H      9.0930530333903228        5.0007882947170401        19.608601800608746     
 H      8.2017843665459758        4.1546565735517396        32.700109384959973     
 H      7.5050516091127504        3.9012600760143790        5.9858085805386532     
 H      8.2653424847987722        9.2347845065929519        38.839470317281467     
 H      7.2677846692711734        6.5906610981164615        26.004408146992724     
 H      4.3695612644642612        5.1966586395404670        24.280164493854883     
 H      6.5548298821503144        6.4490384744169953        37.298520831628302     
 H      6.7465324419562318        3.7991838657928172        38.894309235551894     
 H      3.7614262561322103        6.7527155417147240        10.977613729591168     
 H      9.6845276135556251        6.6562054977126781        5.7900890143212678     
 H      3.7726982705602334        6.4036901689298791        35.752934320790487     
 H      7.8262683667186490        9.5341342326597776        27.151335399282615     
 H      6.6982580743123341        6.2413268199026009        2.1722813821116276     
 H      4.1174934976501891        8.1098242956127304        22.914031694356137     
 H      7.7247369350075603        3.9303509839381197        25.128801165327697     
 H      6.5077906478832963        9.6870825305776282        23.623699166822799     
 H      9.7168801676535992        6.5825220576723673        21.559125424945378     
 H      6.1851608470567960        4.8466562074479373        12.027307606132560     
 H      3.8245133903839208        6.4838861298120714        6.5312865389768584     
 H      6.2837578789476796        6.6578801787755566        31.172395711996945     
 H      4.5408650282625898        4.7240805967742858        37.853707051798025     
 H      3.9712915189418085        6.7317479241465108        20.795899570428272     
 H      3.9124147370902245        7.7028935070856441        25.438456485945448     
 H      7.0061342827377020        7.1972577809444864        16.339927649698808     
 H      5.6004181171184335        9.1000817999296153        36.177613478523924     
 H      6.4196021551243794        6.2205442224297069        19.886552459017590     
 H      7.2342810311421362        3.8460221430618629        22.640473950511620     
 H      9.3409581967584536        5.6470188531016552        5.8002729098190695     
 H      5.5021912801006225        9.4491428079355870        28.162551244381810     
 H      4.7158654932199946        8.8607593847693682        35.510423632571744     
 H      4.8050321671560008        8.8808202924859145        23.394422497947033     
 H      9.3756821195787250        7.4551486936652314        34.529958493606458     
 H      9.3524208024816851        8.1307368522851107        9.7129255322540669     
 H      3.9233847373052368        5.9838882222197958        21.527824588824409     
 H      5.0761550175086931        4.3414278164424136        31.202850910530607     
 H      9.3988563639845815        5.5747735495054993        34.609270121832630     
 H      9.6665912119430377        6.0914351584943205        8.2702955922400267     
 H      8.8046548836839271        8.8982274583171499        18.429332970188860     
 H      9.5347422591049469        7.6030362667438158        3.4732751298812676     
 H      6.0872918045974389        9.6398935334213629        6.3004359473129226     
 H      4.2134169900224219        8.3281272461094886        34.129628166029889     
 H      4.5772204694929446        4.7202562822847876        17.964677413953940     
 H      9.3286060770434940        8.2177004993455274        19.670191642548350     
 H      9.4492977927524251        7.6565971815275571        24.645835344442105     
 H      9.6046721836038476        7.0753698274697401        4.3613662634512185     
 H      5.7222900405549701        3.9445311460622974        12.001953454941308     
 H      9.2403849896657952        5.0911794908945467        2.8790400913588865     
 H      6.2648391803476668        7.0166686925396267        13.773908195973704     
 H      4.3018386031636142        5.0856989532879293        29.658264882061854     
 H      5.1968491955418559        9.3044675061249009        6.8340815373884523     
 H      4.1639576085850738        5.9487376639142511        27.245696434072119     
 H      5.1582980338323035        9.2295941928758669        11.826869974920660     
 H      8.6134424044922753        8.6030976611931802        34.975903582229691     
 H      4.0758380688211666        7.9723795595244891        15.731368725365851     
 H      9.5650893033297120        7.4859733887643003        16.357742558488958     
 H      4.1099727300823545        5.4249781134229940        4.2450820535592397     
 H      4.2755955713166482        8.2476870261875188        18.291564718915563     
 H      6.2849979383339445        6.3550360469071823        36.061774958848474     
 H      3.9346162560441829        5.9346708613902823        29.199429915754401     
 H      4.5953833522949177        4.6958715795761830        9.7814681754887669     
 H      5.1194218808501741        9.2127571720940100        10.768705318691364     
 H      9.4475103421924942        6.8636003160908476        8.8959962719394561     
 H      4.0633109480433705        8.0606755448107599        36.679074086656598     
 H      6.3695653200078377        6.8408795344557012        34.742611291435274     
 H      6.6019646086306807        3.7799942140068352        27.840308096304376     
 H      8.6473666656440358        4.6103029803920395        20.416060764214112     
 H      9.5705403804205140        6.1909503339024807        22.587168054184492     
 H      8.1286117506852396        9.3894200329731330        22.927011532562219     
 H      9.3585493814651972        5.2748593585312289        23.728304402468027     
 H      5.4573523776161323        4.0528170981182479        20.859300382238324     
 H      7.6981631050627506        3.9119497496527553        8.7325643605521321     
 H      9.0094900063373071        4.8612500564447165        38.772810636745170     
 H      6.6999375643707619        6.0576972171612562        9.8984299961406581     
 H      6.5750415491101890        7.3363749631427195        12.684334597636640     
 H      9.0909509115971261        8.6179013121894172        23.511974845385826     
 H      6.3037042519745210        7.1711213223120023        17.257397703470652     
 H      8.4993523928804073        4.3491057908392134        27.559114458091354     
 H      6.5004185974157114        3.8779990260161070        30.849557773093171     
 H      4.1592383406970326        5.3877218007001231        39.225122886329956     
 H      8.9484312032364528        8.7888479934733237        38.017304227475876     
 H      6.9634519739071887        6.4080733022733209        24.945230299236655     
 H      7.3196821441731537        6.7804549409530370        10.311951504744467     
 H      5.6799467993938881        4.1002903961725119        30.167106172638285     
 H      7.5740474851265658        9.5476145336395177        17.827472748269969     
 H      9.6552430868241945        7.2215248924431314        39.940670904124637     
 H      7.5469238716091649        4.0460031083455759        35.705335957824744     
 H      7.4901680519288627        3.9990287128211164        17.902644608102488     
 H      6.2700844302957144        6.4326019716515077        22.462187152786949     
 H      9.2191257648218219        8.3143167975824905        15.888815405044259     
 H      4.3215321151447768        5.1759420722805736        32.183973333388366     
 H      4.4697319616008064        8.2536960126257135        30.211821304289909     
 H      7.9082340435870089        4.1818403080085931        7.6670263653166080     
 H      3.8267549913467387        6.1643207830755289        39.863129161822059     
 H      4.8702156601969797        4.4955574429600844        23.375704284412574     
 H      8.2340546430946624        9.3203162691218395        9.7563816645566579     
 H      6.1557117291713057        9.5925107927014679        21.108264574245716     
 H      6.9102032771724833        6.1747234592773825        33.547232285298733     
 H      6.2934696109331867        6.4286852146479880        16.310642857201596     
 H      7.8836592497915428        9.4909476554998662        21.390050851707215     
 H      9.5250223023855707        6.0120760311438470        24.412606470578766     
 H      5.6625716578143743        9.4185689567068334        38.866726822781928     
 H      8.0674736454811846        9.2473995058705025        29.626103417054544     
 H      6.6604729172453432        6.6549564302637592        23.403815097253247     
 H      8.1916226929858738        4.3024995242350910        38.325522256874386     
 H      6.0932632006234746        3.8776846713299533        15.737208397015561     
 H      4.2151426124871074        7.6096465267467899        29.328945811992817     
 H      6.4000910948524208        9.7174897398345319        7.7597175877739675     
 H      6.2624671658470961        9.6381609150023486        37.359180204304323     
 H      4.0839445679888939        6.9632584590536331        2.2272254617087071     
 H      9.7466192289937226        6.6594284973415405        3.1569380776871863     
 H      7.3860010624029275        6.4223677925769191        28.506082075701869     
 H      4.8775104374889553        9.0139430940538006        21.757202002034152     
 H      9.5569738492626470        7.6266286183178833        18.859682541451850     
 H      6.2556363547354721        6.3849995359691887        25.859148070276841     
 H      6.8704056853618498        3.8145283378723169       0.54215899071677531     
 H      7.3277758575453058        6.4637830542859911        22.426134417195783     
 H      7.0154094748055655        7.2591947658049980        2.4552544620517196     
 H      9.7326604068958762        6.4965423610663837        6.8432318997493207     
 H      9.0824376189099318        8.5213526839120082        25.088703548772319     
 H      4.8918866951523148        4.4415889072630064        34.517630807432106     
 H      9.3249439392128135        5.5002844586496060       0.34684342410215274     
 H      3.8870298536637367        6.1632797751579318        11.904982697811073     
 H      4.0201459157031421        6.5906157088606694        3.7677953112531211     
 H      9.6459605762789113        7.5235973515213042        20.439689311634687     
 H      9.4650817434768619        7.9579698680596280        35.466337175435491     
 H      4.0681981238567122        8.0322918354658377        1.7152473922082603     
 H      5.0430014199416524        9.1396790595415336        18.180446042304144     
 H      8.0413008662128842        9.4451052952447974        25.695805515847791     
 H      3.8050536318697006        6.2636909024356315        38.614696237591765     
 H      9.2625462519369695        5.1246471046924542        21.226911761382354     
 H      4.7364691731395352        8.9007010439584420        14.387187592358734     
 H      6.8391871288994555        9.7279201949486680        8.6943413060016006     
 H      6.5018783067679919        7.2567788933571897        1.2355855987609514     
 H      4.4520343816095123        8.6524632312186416       0.18020149703739480     
 H      8.7448919850803222        8.7688725207254166        7.3524847526729715     
 H      9.6131242009025222        7.5589731671290865        28.202237628754304     
 H      9.6713755742716891        7.0851696468424246        25.465960543331516     
 H      7.0242043476409375        6.9909351866971097        36.302914958104672     
 H      6.5619316705687396        3.8565144266776996        34.742467418568651     
 H      8.5806786741631687        4.4164230439780106        3.6896851168466656     
 H      5.0334004756608444        4.2984380614978726        5.3080042877548763     
 H      9.0928344822178779        4.9851036028108293        10.549956196236371     
 H      6.9036773261581965        7.0996290808940499        11.204869818335672     
 H      4.1978651585412550        5.2004728099076170        18.783109167511149     
 H      5.1459820349850656        9.2257329900635163        2.5227142540341667     
 H      9.6973933415147311        7.2620371579454313        38.268633010422960     
 H      9.3918233570909155        6.0109323541471751        18.442959594400495     
 H      7.9739736294395618        9.3007560690648550        15.368112402651304     
 H      6.3114566110288814        7.1500339246642231        7.4863275004511838     
 H      6.7319542193874762        6.2542494999052476        14.943990307457215     
 H      4.7629784880495238        8.9261977798043102        31.402618778606048     
 H      6.7714276816979133        7.0785930496421736        29.582739522517496     
 H      5.6875662058512244        4.0145620014012149        33.960333761326993     
 H      5.9823377251050847        9.6140327414238111        2.1201552725577155     
 H      9.0455180793324761        4.8694488738045019        33.841186908642499     
 H      6.6100337585002062        9.7174961656931256        24.917681199584763     
 H      3.9559913556281989        5.7839744920216098        3.1381441404090018     
 H      9.0114572922214329        4.9661815892788894        11.636999977336382     
 H      6.1073093227417266        9.6084978542574540        11.129706901428795     
 H      9.1262831864245584        8.0415609506451666       0.93524059832552975     
 H      7.9008245373743131        9.5134360252741494       0.32664413349929816     
 H      8.5179578345094118        9.0785962448467643        26.518974315944746     
 H      7.0789501439133060        9.7264893111682849        36.631486341460473     
 H      9.6869092096816409        6.6502760703462371        17.730391144058533     
 H      5.1666032878606858        4.2150843313894635        18.970792920457246     
 H      7.1245633116593305        9.6574820674381758        32.780830285276402     
 H      8.8531587159324907        4.9423114713008696        16.029397746738450     
 H      4.2837897079695688        5.2945690445275062        8.9857606714767755     
 H      3.8258078158523903        7.0726537462949617        37.085383169244089     
 H      4.0739713097090569        8.0854773186529147        4.5508547803940225     
 H      5.0535063844653143        4.2891826322499620        6.3344603134985018     
 H      7.0471782422771527        9.6664642278587554        15.214734985052065     
 H      5.7600553428391947        4.0004048003252022        2.8394974933817254     
 H      4.5525013154344194        8.7619645998512024        39.044386690497852     
 H      4.7629024928667620        8.5908272448074801        5.4442166087335515     
 H      9.0570087192592261        5.0415252606300873        1.3084110734659311     
 H      9.4344129443208917        7.8197842213558912        11.551625189709098     
 H      3.9243455418298878        7.1397989758553582        12.720302475462132     
 H      9.1079525751832371        4.9567118600927342        13.491411419016629     
 H      7.6101611777520235        3.9014756190546276        28.574285220654001     
 H      8.6307438362136661        4.4250883792440163        5.2783642583780352     
 H      6.4104217163464421        3.8622663980806315        12.767335260225844     
 H      5.0208702423620828        4.3525541382142459        37.048835442427986     
 H      6.6018146741115267        6.2020965881267580        4.7465727392227270     
 H      3.7938895507093964        6.4312916949220087        31.875768192733350     
 H      3.9165530563964621        6.1443998176221895        13.436776356949743     
 H      9.4516128584908135        5.5513459802607796        36.372361733396190     
 H      7.2926467042170788        9.4461690381414201        5.3648489982634393     
 H      9.1687076555015175        8.4994601619630554        31.895836768657119     
 H      7.1945100720443032        6.5227670251074263        3.8270794271848798     
 H      4.0964038397052516        5.3699823344822706        28.166348046639694     
 H      3.9779797084525210        7.7888101966158816        37.842141561060934     
 H      9.1774930366086362        8.2194650571028127        29.102216798710582     
 H      3.8318294264679094        6.7364186092663827        34.496842334354334     
 H      4.7496959289213869        4.5369035926665262        15.317224867520894     
 H      5.9220558250885507        9.1255298708467727        32.168248371541843     
 H      6.3660929673825306        3.9847117519724944        21.390520799034213     
 H      5.1951571413602515        4.2114585939871088        8.8961058058694231     
 H      6.2588698843500108        6.9448232576506799        38.725106066404756     
 H      6.8367669879855635        7.1898600495568417        33.603873001395030     
 H      3.9042694958565121        6.2648703239672514        19.813738594450268     
 H      7.4286545828751249        9.6669237588519721        18.908293154902722     
 H      6.4545575241780444        6.8000149669342278        19.058766500691679     
 H      9.6856009492138622        6.4790353355174188        11.580082528616737     
 H      9.6369692497163246        6.4879979750373140        33.324117962716926     
 H      5.3179502009774682        9.2106804403915081        27.048532460527678     
 H      4.6568250212225042        8.8893273661561931        15.555508914845056     
 H      5.7171787410465411        4.0418220673245093        26.763517947697281     
 H      8.4396669609801851        4.2731871746596886        14.742595241221666     
 H      4.0150032944533898        5.5407150580649116        14.725144131503997     
 H      6.9634058227889399        3.9450253490500593        3.2601616401882696     
 H      7.1885047195367449        9.6595733416819165        1.1006975093119997     
 H      8.1575930684158440        9.3366353193239622        13.789575120745639     
 H      9.4109837762905642        7.4408720056516646        37.127876957786853     
 H      6.4320425632750631        3.7690307812156294        25.254306349149019     
 H      7.3158727760389901        9.6500538328677035        30.154674781808648     
 H      7.8710230236817518        4.0602310883371029        19.218109237036380     
 H      9.0034201209285385        4.8995514214353566        37.690107430582721     
 H      3.8643103792043347        7.2588756125069400        26.378360819737722     
 H      4.3778980668384735        4.9518311371518493        5.6916966830293392     
 H      9.5865984170148799        7.2414827148005987        29.531319277782515     
 H      6.9059874477361021        7.3367079614699628        28.442699959523033     
 H      3.9588987526129404        7.6314561970895474        23.837350893921091     
 H      5.1461185844786765        9.2475647764921742        39.717115604708390     
 H      5.8305219348825554        3.9323769919992393        37.583923845106511     
 H      7.1821714032933199        6.9664312386877896        5.0361428368630863     
 H      7.3007708931547803        6.7302968305820192        7.5558762331224694     
 H      5.1421203632258141        9.2535734422754707        13.510005928976755     
 H      9.5455172270311763        6.7886251750744373        27.047719483875614     
 H      6.9857307828443140        6.4498674645277934        6.5372825715414367     
 H      9.0480263715150571        4.9667132258308477        30.488606853130623     
 H      7.2496483546226731        6.7935482775434046        38.839885645769627     
 H      7.3227514544193983        6.7441597218413492        19.935657421270761     
 H      6.6504102552010389        7.3588940893923125        22.619158269695198     
 H      7.4572571484078720        3.8830716403847871        32.089575635258875     
