         461

 H      3.5860405001192923        4.5705929967154386        27.660244654766288     
 H      6.6943482655943285        3.0481708163010426        4.5808712281395154     
 H      4.8598689030206152        9.5908222417393727        2.8171440306710597E-002
 H      9.3762215682790995        4.6165516327479459        5.2166211274334797     
 H      9.9242358825865775        5.8048418543074565        24.949320794082432     
 H      4.4369541499817675        3.8147758637829567        37.950625045200660     
 H      4.1080837166166218        8.8158372871025765        11.654885094964619     
 H      8.2322667598600958        9.5180556828294058        21.731470133333247     
 H      6.5161182125808290        8.1163244337924088        34.549985940223678     
 H      9.7122320865753622        7.8871804572623816        19.371537859446931     
 H      4.7274110214972778        6.2454117712275083        13.143373105489333     
 H      6.9645270792180218        5.0665222993645100        19.112562979827569     
 H      6.0225848322270812        3.0815808876264996        13.365092785571692     
 H      6.1880839859163945        3.1470625177999327        30.021795555072909     
 H      5.9116663534485365        3.1630578082068892        24.369019161592025     
 H      6.3295573061106536        8.1366816744053772        36.714053288921981     
 H      7.6321587701843523        9.7728269096594325        8.3360423698060462     
 H      7.0816106878892935        9.7043885589068744        3.4720598266172003     
 H      5.6988398385983636        4.4903731139191310        32.263347587950115     
 H      6.4279443770588971        4.9285898499270928        12.633549246929856     
 H      8.6449224512384628        3.8215630437473549        26.954461469278520     
 H      5.2397029080616546        5.7123003529430170        30.677532864176776     
 H      3.6442310220888450        4.6974647510449579        14.005421615477173     
 H      5.2643180750795322        9.6526465082757813        4.8528400275040084     
 H      9.4895753561883502        4.6958604610413328        7.5110703076990664     
 H      5.1885446060299119        4.4362898373893165        25.974267114104897     
 H      5.8981254334475581        5.0155145295622896        37.037280935626967     
 H      3.2209590080095958        6.4147772777577430        25.293089966367436     
 H      5.9014662450497397        6.5121679345896339        28.903788900697801     
 H      7.3882931396990816        3.1163323376418073        31.657762305387219     
 H      3.1638165379628576        7.2281924544901663       0.29046486050457959     
 H      6.5076904817789485        8.1633883943328325        7.8197475907671512     
 H      6.2695770546855005        3.0749615548300215        36.659495729804256     
 H      5.1832224441073897        9.4281176411408634        24.527951074557709     
 H      4.3123478247184908        9.2181708726835545        4.6514862633129050     
 H      9.4525253987772881        4.6461733702615229       0.83674510352195297     
 H      6.5928121804897923        8.1745380615881569        23.508132436907275     
 H      9.3098128091698769        8.1564869007322027        9.6539392738627310     
 H      9.9611102771588076        6.6458932523244849        25.612157559998089     
 H      9.3913451575804086        8.4151480510005054        28.467417268306633     
 H      7.2366476152329868        5.6127432863174986        21.246150991140997     
 H      9.7680257414648217        7.6577574278247873        30.431963811075526     
 H      6.6325203775145773        4.8570428586446752        23.179428107996880     
 H      6.4514653088460774        4.7802388799079472        21.074271742006069     
 H      7.4366669689376410        7.6858518610144522        2.5211351453433326     
 H      8.0349025647916186        7.1977724536244665        22.386844779256279     
 H      4.0873810280116709        4.9409604210968840        20.302388002306810     
 H      3.1465044277546106        7.1226086490927427        3.3500335211900261     
 H      3.9233737091515510        8.5560404560688390        9.2197932966184837     
 H      5.0866979674135919        6.8444157692639216        35.348206780274701     
 H      5.4465077391748080        7.7087757565435195        30.665384409473912     
 H      9.6721020012749506        7.7130217875107476        5.3361145485154191     
 H      7.9990100239244022        7.2144587040246426        29.378635234731540     
 H      3.0656029637979580        6.6968705867498324        31.450857108565451     
 H      6.3205571879635745        3.1485676102385574        17.785873773831163     
 H      5.0862709192825228        3.3149700412492478        6.9800894516900955     
 H      7.1648742439129904        3.0986421650276408        22.106739063401442     
 H      9.3784735629102247        8.4610442554704655        30.960761138699628     
 H      7.7699850062293470        3.2490585360773347        4.6513897931359542     
 H      9.8024979972916366        7.4109834565982213        32.725687467151751     
 H      4.0620289973657826        4.1488890251010320        24.075334347822682     
 H      5.2916071550446988        9.7386425060458741        17.870511877806024     
 H      6.1822026435931168        4.7368438684423397        39.050291911351373     
 H      9.8951994163640293        6.3017332091124523        38.696955671528528     
 H      6.8196954058092603        9.9686196532455291        39.656513982297376     
 H      3.9893193273526228        8.5803691005032672        14.126744050377534     
 H      5.9987789416154449        3.0743456032822754        27.647128127406596     
 H      3.0290240162573450        6.4073213519885330        37.982436414934575     
 H      6.9660545263065821        9.9640919325970039        31.379447115764435     
 H      6.3267429228407295        9.6751595417013956        4.5104796428814167     
 H      5.6863008893055547        7.8718216558388461        5.9516379167602693     
 H      7.9701131448928688        5.6654144491640217        26.198011575525882     
 H      3.2070808750146176        6.7494000993097618        29.448951296388067     
 H      4.4770373009549402        9.2993186402500676        15.953236780009044     
 H      7.1321144398912448        3.0712452771294623        29.384616099707333     
 H      8.3248520713153553        5.9226888525825316        4.1085839777923514     
 H      9.6535783125839352        7.6121002672932887        7.5865687991394495     
 H      3.0542240712117907        6.2586556054920335        5.3895177343832579     
 H      7.0175254968088678        7.9763796409149812        38.636657967169157     
 H      5.9289010411349681        9.9451177115809362        11.311682486027005     
 H      4.7389932058662358        9.4823495280867647        2.5224057889539369     
 H      9.5718067470427250        5.1731906167182782        18.063502063957575     
 H      8.0473614596996086        3.4886946836551127        22.462707984796694     
 H      8.5158024603991471        9.3293783317646266        8.0036359242852289     
 H      5.0080246988089447        7.1165013413998128        28.516655203119999     
 H      3.4542171171920031        8.2054043041095266       0.53213203036275503     
 H      3.1882037087164794        6.7435119278862725        2.3908437812944605     
 H      7.9315299075086303        7.3730486335431831        20.319923737600931     
 H      3.3066219695246089        7.9229623664335636        36.572935377178936     
 H      4.6131050252127590        9.3708504170195841        13.692006484507626     
 H      5.5056733739407671        7.5853355514125118        8.1603840179807356     
 H      5.0534070207485664        5.5819503781010553        37.038064979074271     
 H      8.2002923075157419        3.4774030708423269        31.163150307734988     
 H      9.6574359197817969        5.0760709318586761        20.382613397279549     
 H      9.9803218647325505        6.6695690914891648        7.7215532935851012     
 H      7.4756716554577656        3.1840708311629977        17.431101514581052     
 H      5.6523820848397248        5.6451286714311371        39.081656782883698     
 H      8.2845841546089360        3.5529359525533737        9.3755419708182597     
 H      7.9451260306616289        7.1634336687400229        6.5210363773594722     
 H      4.9436655255042803        6.8421293978294475        32.417055529985340     
 H      4.9271564078494503        3.4906977531814545        3.1591024735908224     
 H      3.9317316326095768        4.3313604335938480        5.6027545322848695     
 H      9.8041463368092980        7.0332902546805371        16.708946821246702     
 H      4.8853236335621659        9.5236269456844163        31.526779133075937     
 H      7.1339739363394070        5.1732198967732446        25.831325896183966     
 H      7.7744392165445095        6.2068688041019513        24.144549001524403     
 H      5.0036046902863482        7.1225043160138259        19.930342738004097     
 H      6.6783844709055460        9.9756617539734052        28.899250056995001     
 H      6.7154166064270138        9.7022454746697129        13.445895345031857     
 H      3.5745160976122219        4.5963364842436727        7.6546588969444693     
 H      5.0234547958440512        3.3580395726059749        22.419724326121191     
 H      6.8467927918592713        4.8830471528333046        27.840171801847713     
 H      9.5313057790745201        5.1517614371708360        10.012580947375731     
 H      3.0797151830738412        7.2037044627238735        12.363781265775627     
 H      6.4427718959582849        8.0873908422662133        30.312645078571844     
 H      5.4992123741485122        6.7554368697857257        22.446097814056966     
 H      8.3066031826523687        3.6444719166896542        15.650022323506164     
 H      6.7355322997127844        8.0696820034012458        12.170884691194029     
 H      6.6964856931211827        5.5718949925011092        17.014000568872557     
 H      8.1872704436310677        9.4728762225482530        37.400461450584658     
 H      8.5456951340473815        9.3307886133006459        12.477631957502172     
 H      9.1786469518658347        8.7337819367729352        14.369513354338672     
 H      8.9534231710231698        8.8592978065156949        3.8351553715261182     
 H      9.7784979085676351        7.6124164119527347        26.011255328520608     
 H      4.9312337680756801        6.0897575210878561        6.6609385878414011     
 H      5.2107606825811770        3.2698171240631178        28.245389101976716     
 H      4.4334569093384726        3.8349366613494769        33.782526277574036     
 H      7.6406824089874785        5.8061464981309667        9.0350761095035619     
 H      8.9341729849373479        4.0322215288829053        22.479906260982244     
 H      5.0739624634114469        9.5952421025395314        37.711898063973777     
 H      6.9334214281743600        6.3296885415118131        11.070500469075750     
 H      6.3112317893413623        8.3244903413762099        32.444191357477834     
 H      3.2068275908850836        7.5648402697927164        23.269147911055910     
 H      7.4478513296994242        6.4079230894131003        22.003778173264266     
 H      9.6842193708473747        5.2698573563202755        34.482914351681849     
 H      4.6766074448459456        8.8183497898241399        22.587760666780781     
 H      5.2626596754468951        9.6945687606751445        22.421984372964939     
 H      6.8248689645764289        9.7876234615823225        10.884915881019596     
 H      9.6237550295199679        4.9563676905180030        32.361539997850045     
 H      7.8271207598702333        9.7314389111342070        33.183362591198971     
 H      9.7770655568319782        7.4706352721610649        28.326533865951923     
 H      7.0076083035918426        4.1567767325974359        2.9369279051968760     
 H      3.1299214158980004        7.4112531002277473        25.303850969723179     
 H      9.6681673397032686        5.9514531185166835        20.911164733848189     
 H      8.6834831883179184        3.7767492270034433       0.95450425113921644     
 H      4.8881104982934156        6.8837818859015272        15.648209910672028     
 H      9.0418847211922575        4.3287544223856722        38.682019087980386     
 H      6.1578853126373909        8.2817249971774292        21.309360704497941     
 H      5.7450125993137542        9.9035370217295178        31.153834565884360     
 H      7.1506322796407167        3.1696021577192850        20.048056510490898     
 H      5.5974325709464710        9.8662987213794988        13.568213485225163     
 H      3.1055072239026300        6.6303621857519692        10.055264766267619     
 H      9.1747708050806782        8.6586200455187470        12.013885175261116     
 H      3.4639268927514495        7.6476594524662440        21.221435470555100     
 H      5.2472739101086905        9.7147568070146466        19.878454557789770     
 H      3.8198430792025042        8.1651801694549970        38.559669934175993     
 H      4.4376787180839514        9.2581502997795102        20.448089698173394     
 H      4.3445555018623327        3.8110973808229964        17.949975871307561     
 H      8.0997535420060860        6.8061664128501977        26.898941562008282     
 H      9.8976296116359173        6.7327199039430656        14.333186052034570     
 H      4.9584873683337438        6.4294399984262638        4.6853916699830069     
 H      4.9740997666990312        6.6549483874926469        26.361764169010986     
 H      3.9720285729843043        4.2174127896387308        3.6004208646069955     
 H      8.8062439296763557        3.9544288326735146        24.809026182279688     
 H      6.2599941036771733        9.9459193692530938        17.703346372280578     
 H      5.6079369351948545        9.6723410640920235        8.9938820972736746     
 H      5.3737635608333703        3.3768449976837105        31.844899733875451     
 H      4.5467624292291458        9.3391528642070583        35.768159143060657     
 H      4.9268554991973588        6.2231484210512260        10.887326713491426     
 H      5.7495635251936195        6.9291360427631208       0.89241353901419795     
 H      7.8592545134705283        7.4375100790260280        38.038431348565240     
 H      4.5155120727269216        5.2759052906944426        27.801764706305594     
 H      3.2282422389697216        7.5429705688823754        5.4287165370325488     
 H      9.8448292770551564        6.9250567670469332        21.155431500835967     
 H      6.6181597207643241        9.9706935441469255        8.8734450616775025     
 H      9.4114136231999499        8.3536933859247675        39.045394057877992     
 H      3.1352877718012984        6.6690551430364859        27.339102597694904     
 H      3.8130063776417749        8.4191517574678585        18.687594317096650     
 H      4.9362601902234342        5.7608420736834312        8.9152869157758410     
 H      5.8325822879806353        9.9331518335655939        33.537488574249814     
 H      5.6718502606878065        5.0067442187331901        14.700662379997837     
 H      8.9190878486186538        4.1130513941000393        29.363736372634996     
 H      7.6534699927443306        9.7262841482129723        1.4996164562540588     
 H      6.1823857540355531        9.9432435187089645        24.539332915749988     
 H      6.2181890003001428        6.1248270481931124        3.1492651355520689     
 H      6.1857316949331631        4.8116902882727919        1.0719514937370127     
 H      6.4132073456321592        3.2016220190483935        37.711138266404141     
 H      3.3173667838409244        5.1119962202562323        3.7399407176779356     
 H      4.3244335894202903        4.0171239083731747        30.053844127253704     
 H      9.9693068194464729        6.7195818628423494        12.145810484470033     
 H      7.6439122501484551        7.5887248256993223        27.399621903567109     
 H      6.5087370732106251        9.9821218418839894        35.514065156204978     
 H      5.3391169295228629        5.4094559208758710        12.705253621769131     
 H      3.3339876641558153        5.7717678973320554        16.349720309834026     
 H      7.5899656338441641        9.7377677434628094        35.458835146593565     
 H      7.1673423985656157        9.9234020218859555        24.721823935303657     
 H      4.9158630699269326        6.4872184769443146        38.855085296535627     
 H      7.6413876772106288        7.6632133188046225       0.51655978355328980     
 H      9.0026410002874666        8.8931811985613702        16.603665171603666     
 H      5.8121966564826479        5.0767478605149625        16.814442561841442     
 H      7.9997809442951446        7.0580050026415275        18.040941484614414     
 H      5.3414757029631650        5.5921840723584557        2.9066309837959339     
 H      5.7599180697837511        7.8786211681718656        12.604591724617379     
 H      4.9021068969488653        7.3406604997932172        24.374618482265763     
 H      3.6257242244047103        4.5206341454076808        10.031416818770717     
 H      7.6389286923880695        5.1457814684617409        23.667335139447559     
 H      9.9839092665545603        6.4842926216645598        30.943969304792972     
 H      6.7084521167745716        3.0813495269546296        26.927895644980531     
 H      7.3396993200341250        9.8615604668965116        17.541755808112356     
 H      9.8501683789019996        6.6964477374522735       0.83523837145282331     
 H      5.4742847789518274        3.2129025066532688        11.196032989793443     
 H      3.3281480185336774        7.7803245063725983        16.819485102488262     
 H      3.0232568374291771        6.7787909125002983        33.517483505308078     
 H      5.0075319554841284        6.8785789487635336        8.7414697191738941     
 H      6.1073160683070338        9.9403302225301022        37.733780334330532     
 H      9.6641692829877250        5.1080026865732071        16.056071827673708     
 H      5.2260885877583085        3.2476255181395288        33.998620926723660     
 H      5.8410222414226851        6.5581652539632493        20.131389018681752     
 H      3.7863770473561114        8.2784975237988689        4.9047082225774394     
 H      3.9335537290380889        8.8765041295210168        2.6548489335386800     
 H      9.8831108591521986        6.5332800671913747        27.897003036019402     
 H      4.0229317068611268        4.8575770533999876        18.076215204004342     
 H      8.0382436621287461        7.0531481499846453        4.3847525375871159     
 H      8.1395982111035146        6.7994424323295410        33.730685628380130     
 H      8.7789486479719692        9.1535637331785260        39.389605937022722     
 H      9.7306834699356912        5.6474414151443915       0.77462516348942789     
 H      9.4896073746066847        4.9729224752241583        36.478085556311562     
 H      3.8016381553851635        8.5845365130831794        7.1984355359413046     
 H      7.3307031643329790        4.9531451704891660        8.2139977199756391     
 H      6.5495158686317483        5.1862556537171303        4.9193885109549491     
 H      5.6044103330540285        9.7448697274667726        26.524067694773276     
 H      4.5009444374620209        3.9393663931842533        7.5646290344768534     
 H      8.4779516689776653        3.6538009118895234        33.432050581247239     
 H      7.6492411762662300        9.7333014913104847        12.865888282874527     
 H      4.4738456158557742        3.7450245769820132        15.845216049640387     
 H      8.8282773616247052        3.9378886378721920        13.513280865805767     
 H      8.0272352356761640        6.4291219589325657        15.442148595002591     
 H      3.1644196245110985        5.5891208116162652        20.639099572320795     
 H      6.9939122885895140        3.0941881388610275        24.439475440832688     
 H      9.0752147641944809        4.2390953874486481        9.5854606723722799     
 H      9.2947396356660796        8.5407155004491049        25.960236845690471     
 H      7.6450146001193700        9.7990796049248274        26.751946290150439     
 H      6.6861981962787711        3.0063989753120719       0.28403681279741100     
 H      8.0558427843887852        3.6803534784183247        20.112587836831178     
 H      9.5475145088138369        5.9470612029105387        22.947710777130002     
 H      6.1869705839848850        4.8719029017242335        25.516298245357738     
 H      3.2281369501259807        7.5563487661275088        19.028629678483046     
 H      9.7151414980808184        5.6029503797807747        30.456557219843202     
 H      7.5567782091356364        9.5222668420924279        15.318576731734218     
 H      5.7414347402502681        6.5909247255542764        24.431827532419330     
 H      8.2144950099443257        8.8993752881143244        14.595614686161454     
 H      3.1897141062075063        5.6067628881090199        7.7769254037469340     
 H      9.0608709499413393        8.7167132063041066        17.658385984230915     
 H      5.3319773419129204        3.3774939005681057        17.632407325132732     
 H      6.8996222111947034        9.9732317852721959        33.491894412147637     
 H      3.2455587007964546        5.3773955731140175        36.201877463559519     
 H      7.9759612481667359        6.3136800765343395        37.872948255522829     
 H      8.8301008487646246        3.9266354138712294        7.2347771133039576     
 H      7.1903836760476914        8.0622097153396286        20.783275349550877     
 H      7.5413502672724526        5.4454782573387268        28.311699200908691     
 H      8.2544940993702678        6.1140454267290574        6.7806297113740666     
 H      7.2559599796789760        9.9171858437074825        37.450670284079472     
 H      9.8788321304784308        7.1710385805233221        15.619558439902587     
 H      9.8221402912759608        6.1515006571303772        10.141475719852350     
 H      8.2814611743579221        9.4955374024340298        3.4265571056652186     
 H      3.1968626207127921        6.5832265459087589        21.137071934009903     
 H      9.5212825278986593        8.0796100378768010        23.581400464896213     
 H      5.5802856752365706        9.8070676475977354        15.679233825385621     
 H      9.2932204955813003        8.4954815392499228        1.8642471670215319     
 H      7.1955506415104562        3.1281419997526174        9.0748951050990065     
 H      5.7059022048580514        8.0391754827197932        10.456226681440482     
 H      9.1894741690610768        4.5451762468140853        27.428896974696585     
 H      7.0784650430804552        3.0993590849243784        6.6568093598076006     
 H      4.4561007084165194        3.7377479041322017        35.823824408204054     
 H      8.0163618923955475        6.7385897589312522        10.948032473394122     
 H      3.6512299240424451        4.5962185083447125        16.009666068053352     
 H      4.6802279480635969        3.7177448170969618        11.745757342732174     
 H      7.9673284741448089        4.5885146968686756        11.235519613283442     
 H      5.9040746989425283        5.8301174330215630        7.1083175517099884     
 H      8.5694604897601554        8.9780671548669186        10.041767587690279     
 H      6.0799851389131501        8.1437041683655540        39.296916414174774     
 H      3.0749986531839766        6.6475187865994378        7.8864349532998856     
 H      7.2505056857345309        9.8063018679509799        19.665868130201421     
 H      7.1529666307246504        5.0180131283772553        30.371586771209095     
 H      8.1704527424470594        3.7259739540028498        34.453064015397835     
 H      5.9773824064762104        6.4609793900819481        26.863285614802930     
 H      9.9679050021137616        6.1788341212670188        2.7926794912216746     
 H      3.1543734780787749        5.5100148210774877        22.856173479150726     
 H      7.9018676435653665        5.6439838438660068        39.827376356534515     
 H      9.7800352530170098        5.5183893562027038        8.0542923702376292     
 H      7.9049353020717223        6.6600555187706743        39.916623042633340     
 H      3.0985698939292705        6.5166215083473524        18.814692760186517     
 H      6.3747720338378517        9.8952616019059612        22.504470673939931     
 H      7.4098694379666501        9.8602720809310274        6.2487215325969299     
 H      6.2386910630433761        4.6430617786246078        10.015496819209607     
 H      9.4110241888692272        4.8504501083705547        24.817791951910785     
 H      9.6903604403616175        5.1286469628720681        2.7804234741046474     
 H      3.5280308057426741        7.6666537092707259        14.339278215318382     
 H      3.0648166354557072        6.4566015996613730        23.201389650292192     
 H      4.4457340468648940        8.2464674572328445        34.064052935285751     
 H      7.8688055305000937        4.5257448409461487        35.145754558596266     
 H      3.9291932032806542        8.8254473656106747        33.344633781208785     
 H      5.5403406955910031        7.5689555934282575        37.220344119358892     
 H      3.0816868390042949        6.6885392722050634        14.414148055686383     
 H      4.9747699285137763        5.9293413619003612        21.965810633677023     
 H      5.2074272407128284        3.3052054389847765        2.1155725136626615     
 H      9.7619558101748183        5.7212805081777915        14.137073293366630     
 H      9.0034628267919921        8.9322590547638381        21.371643674551205     
 H      9.8686839144028422        7.1086110412901080        36.836464846709418     
 H      5.2244832767340235        7.2973583507230932        1.7036055673038042     
 H      3.3056463125242250        5.2559003547529661        11.940633504661696     
 H      9.7307682664649189        7.0908360913287263        3.2587255275456943     
 H      6.7737263276217137        7.9685349660605480        9.8777227516858179     
 H      9.7648834229984800        7.7540797319226540        1.0291557447010051     
 H      7.0848492526124538        6.4618631506112596        35.914012706857307     
 H      8.0246877247035346        6.7867292220232942        8.7661776250151977     
 H      3.7969733739522575        8.6833093068618279        35.965793616588783     
 H      3.8440234138436820        8.7088280466436743        29.317848455724015     
 H      4.1691746591850531        5.4794165914435498        1.0019026571411211     
 H      9.4789362893505071        8.0497181769506891        36.837615114738682     
 H      9.8968475126261701        6.6677305509325810        5.2289276816742865     
 H      3.2976383332170882        5.7096282980529560        29.395865603655484     
 H      5.8184009536266599        4.9598155768877499        34.908369557221654     
 H      8.0756734100509107        6.1502783477769203        28.926831555475296     
 H      7.1071836612722752        6.6573056214826494        31.658903726623400     
 H      7.7565211066528761        9.6776767425280728        28.774662244771545     
 H      3.3754104819727213        5.1348243952265227       0.27895952254108403     
 H      5.4724046595971556        9.8277114629962306        6.8908551626830565     
 H      4.7574972778412290        3.5625251552372399       0.11355654162111053     
 H      5.4974899643591870        9.7880490884668490        35.678639628257386     
 H      3.2200858614330072        5.3819953583233477        18.482786714539113     
 H      4.8288125578099841        9.1961610591684302        29.385336941037735     
 H      7.8089463121222025        9.6904692302887359        30.801340505054064     
 H      5.7195648227407885        3.1902101362502600        5.0750104428854277     
 H      9.3471125467318750        4.7145081274016833        13.972868134981965     
 H      6.5249417503919149        3.0256669363335011        35.657950273071755     
 H      5.1442922239490292        6.2303367611679636        33.420157311289316     
 H      3.4540705323396454        7.8779869383743808        31.490289693546369     
 H      7.9911704422590972        3.3626558806466287        24.564916826613999     
 H      3.9900732018545551        8.7215516070420644        27.317463069787241     
 H      9.6561368800218830        5.4756606351279187        27.694775516656275     
 H      7.9105433378488472        5.6728760165513306        1.8907856184112453     
 H      6.3968848112978307        9.9902309423584477        6.5266321319528622     
 H      7.0298667336040817        9.6263912805891483       0.61817173257750502     
 H      6.7192106308989139        4.8432559553574750        32.425065161735318     
 H      4.3666046910036664        3.8236005544489347        9.5897640955841279     
 H      8.0155408371098833        7.1422467695763618        24.838538872882925     
 H      7.4622295233562506        3.1606060241403999        39.473791215660633     
 H      4.1871761072939648        3.8961167080090831        13.695681076982300     
 H      7.0401196900284555        4.8774991859904668        5.7390646626293726     
 H      6.3741937368971877        4.7868035437759104        7.7321089514637391     
 H      6.9453934233944477        7.8474274732645570        16.438001726653216     
 H      7.3047538661373990        3.2603838585469953        2.4070519387070770     
 H      4.9717792626513493        9.5899165544395153        11.648188793753938     
 H      9.5226380795892283        4.8713020651893606        29.713126913243698     
 H      6.3928297555189868        8.1098769122816083        25.662864173273988     
 H      3.7591949058608298        4.7314669799190803        34.078875735386376     
 H      3.2609284566689150        7.7739908406850571        27.301751557115896     
 H      3.2125447187216145        6.1069634281244465        35.454765799801478     
 H      3.1933440210988393        7.6196810895737386        9.8185179806262841     
 H      9.8708539579665544        7.4178455090610083        34.830772572216141     
 H      4.2497396189353971        3.8394674193304263        20.069149639282511     
 H      3.8132842431795697        8.4843253214366552        16.274629640308497     
 H      9.5401632761898778        4.8042821559818805        22.712162594523079     
 H      6.6521197013586777        9.9104425802230089        15.568581563155627     
 H      8.2752499306134748        3.6382841631188918        38.949118655328313     
 H      8.2118510441167025        9.5124903714773694        24.489811751357365     
 H      8.2898754186831738        7.2776090786801060        13.255337527788750     
 H      9.8371519588161167        5.6841882177642056        5.6254454662767248     
 H      7.9009396586332397        7.2870804125237303        16.012359057157710     
 H      6.1213451032366537        8.1332362115393728        14.608855549422033     
 H      3.1923467615317054        5.5461321347709740        9.8786548159327694     
 H      7.1743245371168971        7.5004351257393296        18.461186333590774     
 H      7.2946610567410239        7.8159980130064408        4.6354939303746088     
 H      6.2717678007412978        3.0147442547736887        33.665266230642963     
 H      9.9463544801403696        6.4084073097589700        34.512002794854546     
 H      8.1658660442605822        8.8465763075820938        35.449506502911746     
 H      8.0498107785931232        6.8390899954189299        35.742140299285659     
 H      3.6729869846017031        8.5192401131205049        20.766981544936154     
 H      9.7313113540781746        6.0188470775665914        36.663281853110561     
 H      7.8211218892646599        5.3021594426339114        17.088664234205613     
 H      3.0490043645637717        6.6905173260140902        16.739262460098693     
 H      9.3721264929580972        8.3925117230342252        34.648396414103125     
 H      7.9296436228470331        3.6343228465879793        29.130988527755587     
 H      8.2721771636627341        9.2235926535947872        5.8520044328198315     
 H      3.4920541810309662        4.8584534814787901        1.4498648357004618     
 H      9.8016691834969567        5.3943416366696173        12.032724945826390     
 H      6.3929475231917001        8.0913044260106428        18.782675673471999     
 H      7.2886039681996717        6.1287351982148799        33.917483449932966     
 H      5.5902141797109213        8.0097667277780484        3.6035508272620782     
 H      8.7653340549573997        9.1126642228471333        28.922664409443776     
 H      6.4500831362147260        7.9886527846428779        33.519095565615572     
 H      7.8157307030204670        5.3946559243971679        37.502782061374745     
 H      4.4191582383837869        9.1341832148465105        18.144396484028665     
 H      3.5695884471963621        7.9405503106990558        11.855985908921514     
 H      7.0226988541611108        3.0868190706184717        13.264408802084889     
 H      7.9886492028868279        6.6453007032822669        2.2362373354495371     
 H      8.9469730055385579        4.0890891105594864        20.325107481021575     
 H      9.5709363908747278        5.1899192914749017        38.493164023112293     
 H      9.6583866116321726        7.2254366945783213        9.8511371756377493     
 H      4.9182978342368973        6.7083199365317681        17.963524562880924     
 H      9.0625734392602375        4.1563177676745457        18.320618036960585     
 H      3.3314968097753144        5.3639090108465375        25.715184434182444     
 H      4.4496652294433323        8.8120897985606543       0.63903136959781182     
 H      9.6564904202288080        7.7384695273085420        11.862539802803242     
 H      6.1590362298439922        5.2435726404966871        30.433676905019016     
 H      4.7528867627014160        4.9227209962209342        23.920697381042782     
 H      7.4283902846175849        3.1929282294922912        15.284692120520317     
 H      8.7090668845180890        5.3698801510227865        32.412909735436720     
 H      8.5969692070214005        8.8090653775765801        23.706666235419497     
 H      6.4653425347798201        7.2018304625137990        14.433525339371860     
 H      7.7569518266674287        3.2651575605575696        26.651407968689025     
 H      3.2150775154498641        7.6982562521674014        7.5541733182017694     
 H      4.1506261099551018        3.9279432515116821        22.081239103657250     
 H      5.9694940117722526        4.9276819666815088        18.804575275354701     
 H      4.9935549549000342        5.9834829118992978        15.169032154100362     
 H      6.4002465443120284        3.0202851668430983        15.605273469800499     
 H      5.0687340564652219        3.3071735249543543        13.722813637529088     
 H      6.6102381756249251        3.0476543225309971        11.184515764976680     
 H      8.3187396134147438        3.5503345084144380        17.987677890496510     
 H      4.3812126649517511        9.2628179212724646        6.7244124811134691     
 H      5.6629000436008390        9.6891004041889488        28.634341915393438     
 H      8.5876717079963250        3.9035318308398486        4.8777803013321890     
 H      3.6581109349985028        4.7178881644270101        29.701735591540956     
 H      6.7504261126850142        5.0501244922436577        14.697673880379439     
 H      8.0247460662046421        6.2028978470049658        12.959555245544719     
 H      9.1494100155074971        4.2357936861708518        2.9094282081960139     
 H      7.8157141775183545        9.6667492839670679        10.520325504418611     
 H      4.6817430539128084        3.5740879656927591        26.201359346667516     
 H      9.9095774429543262        6.8649852823657254        19.090042532298853     
 H      8.0433318634076159        7.1005574293454972        31.610305999206467     
 H      7.8512351753392142        5.5111805870307178        19.332029361659352     
 H      9.1816512285333864        8.7315965093555814        5.9961535185492130     
 H      6.0375998000619315        3.0326210537197884        8.8131193959017811     
 H      9.8239249756975084        7.3143034697082694        38.890587829303705     
 H      3.2947468956899200        7.7457042444147302        29.437523296128731     
 H      8.7043664661981719        9.1696833621898772        26.682782585947088     
 H      3.7511203861104589        4.4771424648294795        38.354710315888653     
 H      3.2412069774752039        5.4609212373116023        38.271277236595708     
 H      7.3306203048951009        7.8617467907004741        29.851926374056191     
 H      8.2442464182782924        9.4386226725593225        19.493122781730669     
 H      3.1641745968212178        5.5904902309026792        14.254382171375463     
 H      4.2686873285688591        9.0871764246013775        25.166474973650928     
 H      4.6155881650497239        9.3442020428662609        8.9156487759490055     
 H      8.6902650260068803        9.1180567249905167        32.787220063236191     
 H      5.6131330151886765        9.8743956775674437        2.0956064577698235     
 H      7.6770222300887303        5.5418886732566852        14.858245487939797     
 H      8.2514528705639947        3.4746166207378844        36.950053838119125     
 H      7.2878308050091682        7.8476096962110073        7.1698234851661686     
 H      5.9722323734970457        8.1798727989035118        16.778435544986504     
 H      3.6838586256616943        4.5602463165295282        32.044076144934728     
 H      9.9385298710148167        7.0806528614401385        23.317920441176028     
 H      6.1388447117784279        3.1355640335805552        19.778262516158239     
 H      9.7781486751797271        6.0709150478675511        18.491125493233110     
 H      9.6587547664876841        7.9932395750396745        21.380866197365691     
 H      3.8144096715893769        8.4645976871317021        23.119436449839998     
 H      8.4932213957777698        3.7261501005268567        11.461141619886217     
 H      6.6871883679057831        8.1488112200077616        27.690574880856307     
 H      3.3146099221531617        5.4649205720789906        31.531066283746341     
 H      6.0505134951997643        3.0304224593361853        22.191140341544180     
 H      3.1633160004236451        6.6320889352135861        34.555434196139046     
