          50

 H      4.5341153374047565        5.4460619464213869        38.177772934383526     
 H      4.5767533181732718        5.4935986400709087        18.240154599414588     
 H      5.3102575840822404        4.5631225994008222        32.066192902095047     
 H      5.3533207980414135        4.7204939358570019        15.188329665476036     
 H      5.4222452189782109        5.4867134249556351        9.0082211579154166     
 H      4.5427926426734366        5.4133939958290096        28.989174422013683     
 H      4.5149403926330924        5.4741817494210760        8.4908195920148142     
 H      5.4690216558008249        4.6023397378954662        5.5301676317549244     
 H      5.2114711119316057        4.6263335540171404        36.413112239425111     
 H      4.5225331957026178        5.3840568714740105        33.085052011462025     
 H      4.5829826329191885        5.3820362656007346        15.081480224704112     
 H      5.2575520324738134        4.6679234062825676        22.332621941691269     
 H      5.4772850564822129        4.5562630203010857        35.112856855987715     
 H      4.5913922341979569        5.1589820268058233        25.645270137567145     
 H      5.4201636060734684        4.5518396085803197        38.159670531168430     
 H      5.4839903963394132        5.1144848479608349        19.358534443589221     
 H      5.1698900683697104        4.7195226347650623        30.224930333823991     
 H      4.5860236745294838        5.4334070523280538        22.385956041295366     
 H      5.4105326162100535        4.5304322402010184        29.014856774139549     
 H      4.5746800516544317        5.4562416865466687        1.2553239924795880     
 H      5.1645200979824031        4.5871308244989164        18.188416760982907     
 H      4.6833360069423131        5.4848347330932219        4.4286440702468317     
 H      4.5716805050695548        5.4592414686812765        36.103354003801343     
 H      5.4671648794998733        5.4768703143364421        11.637109893337119     
 H      5.2350275836085158        4.5610350973853500        33.220319311191993     
 H      5.1628037163602798        4.5811381033486507        2.5027736413948407     
 H      5.1952678842046911        4.6093865411101813        39.462581975271299     
 H      4.5642169685220813        5.4374504197117792        21.244423247985406     
 H      5.3964129676681454        4.5539811564337063        24.360626925108491     
 H      4.5179677247473515        5.3646800556269882        39.258774164245494     
 H      4.7814576255535970        5.4924309054741807        5.4831140907022924     
 H      4.5434371753828247        5.4786824592397743        19.333943144210512     
 H      5.2793687363573172        4.5404097625662061        21.289181320762292     
 H      5.2094096669480239        4.9636940783520425        7.3548775635879835     
 H      5.1741492285701600        4.5998190191634212        8.5672827060465053     
 H      4.5167859036821607        5.4821823085211756        2.4687801362383470     
 H      5.4750422394268634        4.7244348935889153        4.2206718081708852     
 H      4.7148387009415984        5.4493859791211774        16.225396780003173     
 H      4.5354074213365623        5.2930759626463582        12.053364245327906     
 H      4.6306726098931863        5.4559798856025781        32.033449695578206     
 H      5.4379879754329599        4.5510249153006415        12.088483473257988     
 H      5.4968007085583057        5.4586313619006956        28.607051569541209     
 H      4.5716003143946677        5.1905395883470966        10.317097272345688     
 H      5.4568603264116575        4.5227015693998460        25.639171455572779     
 H      5.0321072391012338        5.4310031142092434        27.292657747737159     
 H      4.5846446358132029        5.2146407281255023        24.256062053036821     
 H      5.4036295136142822        5.3070658380208178        13.217277814181752     
 H      5.4452870563749709        4.6814821307670238        16.204145542290505     
 H      4.8122097420044456        5.4753628905743357        35.049741132259733     
 H      5.3429036946138160        4.7428301107574882        1.2102428223291282     
