         452

 H      4.5545781184868197        6.8749063489904998        29.383114510886426     
 H      8.3914075451170547        5.9344818638938843        31.901287520155304     
 H      5.7507526414759376        8.3312830116950405        5.6711302457649300     
 H      6.7680160713533315        4.5254123010229872        8.3109064394872441     
 H      8.1232641786719935        7.6619628062121006        39.012139076444669     
 H      8.4962719313324797        6.5316798908295874        21.264310777596052     
 H      8.2956101749163746        5.6312479728187395        11.331324995341047     
 H      7.6005289397749847        4.8563979906383432        20.392166881900366     
 H      4.9610095571833961        7.5690422010479086        9.7905498770518289     
 H      8.2374170066256323        7.4445204233979254        17.199114019607020     
 H      5.3895940931942166        4.9279663164701031        39.834700789606586     
 H      8.4724560295063984        6.2938570428254010        2.1432560639281362     
 H      5.7601014602223009        4.6874241770152185        19.682639699688977     
 H      8.0989274626061469        5.3508250562092412        14.365636306008922     
 H      5.2794904795363680        8.0652247967059836        7.6878499186854325     
 H      4.7044387818893609        5.7615343248184256        34.590185283100631     
 H      8.1674682528990186        7.5877480025537034        6.0776191256572414     
 H      4.9972585120034774        5.2080668478725540        3.5429941491079249     
 H      7.1925081690216972        4.6313880026649965        5.6672382903927216     
 H      4.7565267239496318        5.6235292289898746        33.298505481424797     
 H      7.6547505285751205        4.8987748961444391        8.8298827212017752     
 H      6.9511450067329887        8.3803664785533432        7.5772675633579887     
 H      6.4912026025356173        4.5503320738666897        3.7818891099138785     
 H      4.5582061019229805        6.7215799060027841        21.890312021337341     
 H      8.4328217950983646        6.0424857081554730        4.5896549924696588     
 H      5.2134447579480820        4.9813398261427437        20.650115345638547     
 H      7.5913658890643347        4.8363888484742716        20.372959743354301     
 H      4.6233688795873986        7.1176171055100914        38.854634721692470     
 H      8.0950973774137580        5.3110410142875670        3.8370670727482441     
 H      4.5086814284233698        6.5271651218502074        18.793525038583162     
 H      5.2531111220561382        5.0036491650411792        1.0443994232072449     
 H      4.9116782472976279        7.6078870364052635        28.635225278261370     
 H      6.4953620185413943        8.4961226462033892        4.9676233324313870     
 H      4.8532521924212562        5.5942742431150743        14.728758528183043     
 H      8.4699150913312966        6.5531834546159971        21.264348213022902     
 H      7.9381917832292368        7.7983361644112366        36.516315920396607     
 H      6.1909354460451009        8.4257100648426260        2.4162555579561671     
 H      4.9237297212412354        5.3329227225512739        30.831093638661279     
 H      6.9055737919236071        8.4549180196203348        20.993982738822609     
 H      8.4467668545901553        6.9421053298233524        5.2707413196043182     
 H      5.4932665574206201        4.7761299539178719        24.592829659679545     
 H      7.8826666853781209        7.9005006145727368        9.1940490368806600     
 H      7.5618933151047791        8.1305869707243854        20.097816129384491     
 H      5.9590360417725661        4.6384397805674862        34.783359925812107     
 H      8.4478521324066325        6.8581745708765052        31.244416614157970     
 H      5.0112126849832554        7.7910840032397557        5.1168950750997322     
 H      4.5914637296110676        7.0302693470698898        17.789333781704659     
 H      4.8619848855355956        5.3656394448522882        25.128869036658518     
 H      5.5132792783316020        4.7871036680602481        24.516323912378255     
 H      8.1989423587663488        7.5528967743279187        24.097300981784581     
 H      7.9402435801109759        5.2404324571208178        38.160078600342572     
 H      6.2248870074842371        8.4586823619924445        2.4357212004733366     
 H      5.3810274676461995        8.1272103555129362        1.8844846773990669     
 H      5.4486358351672308        8.1939639402263786        27.928708157423216     
 H      6.7578357550930512        4.5384115951747166        10.413708360247877     
 H      7.1138137709910430        8.3918671534722389        2.9731403548341775     
 H      4.6425954054769534        7.2221622652376967        10.835467892515668     
 H      4.6255363121773563        5.8610006344614289        2.7304865038282475     
 H      8.3407390824945047        7.2538407426983609        27.608239168302752     
 H      8.3888812600395468        7.1243823071505332        28.802356082795868     
 H      4.5096795414948483        6.4751465952652048        33.874282707462946     
 H      8.4358498878405506        6.4161954429949395        26.912521299049487     
 H      4.8780335769934950        5.3339306437289675        4.7339709456572381     
 H      8.3129730579657686        5.6961563064245784       0.13876468332351452     
 H      7.5840479345427108        8.0908050208009819        32.776668064738651     
 H      5.6076647753864242        8.2817098122728350        4.4143550801809974     
 H      5.2004753103216963        8.0168296270165058       0.66697379792024247     
 H      8.0112734714252216        5.2211068755359831        12.425807128286241     
 H      4.8011885376401429        7.4997111885902594        35.644829623483069     
 H      7.8443444245852874        7.9068880113107847        35.370225154516191     
 H      8.3741089293535573        6.9625343760643030        4.1445424038414291     
 H      4.9334475599537173        7.7329678724413968        29.872002700122380     
 H      4.5918601288252985        6.9913644149125558        30.619269080819205     
 H      4.5173176531167192        6.2440166250008637        13.725436591418774     
 H      7.5682274523635806        8.1637398065878148        25.681361932898550     
 H      7.9487558865986561        7.8373674252030945        21.114248117888557     
 H      4.7759370524172740        5.4899927684414669        6.1408516023466007     
 H      7.3049050886320757        8.2768102975181836        37.309813167649146     
 H      4.6518075594323065        7.1348032678911784        5.8518053474261249     
 H      7.6072931271145210        8.1615756368435104        13.142848000580521     
 H      6.8832532419233079        8.4452323158053115        26.412250930556567     
 H      4.5071358965221080        6.6636546483945063        9.0653496771349076     
 H      5.0138563675933110        5.2133472733355797        18.552247897480914     
 H      5.1433758001312926        5.0541599628013483        27.056395072621584     
 H      4.7413204494808845        7.4302954230514020        34.394249113320043     
 H      7.4289100893102509        4.7350999685963018        3.1006046462551184     
 H      8.4596280709452198        6.8049698747473526        38.306701798961001     
 H      8.2920510688888900        7.2738946383488150        1.5281289840254964     
 H      4.5058279571694273        6.4755167145852877       0.86411399784200171     
 H      4.5137145102930996        6.4743271088545367        23.760379364723882     
 H      4.9985075527696754        7.7412507590883486        16.864745441378680     
 H      4.9435001105294329        5.2771791217475377        37.886108550108361     
 H      5.0158036887206192        7.7607618705181274        38.166766932444901     
 H      6.7814967244437732        4.5259418989001698        24.462988458654578     
 H      6.0175992690380813        4.5681344944561699        26.624663027106891     
 H      7.6729097862555760        4.9634853500683134        10.302034314571300     
 H      5.7676136481213440        4.6808656057769138        36.010139843780536     
 H      8.3112779371718553        5.6590169212185035        11.332698798202980     
 H      6.1364858529665467        4.6380993240596800        7.4733472667648009     
 H      8.1524883554530181        5.4169013630260343        2.6188705397585941     
 H      8.1952304789272095        7.3968184448458789       0.31030595772654024     
 H      6.4676778067631790        4.5693876465899539        29.761030915030897     
 H      4.5234209514577621        6.4140781773349547        32.628909304375071     
 H      8.1070882936329607        7.5871543713727201        6.0172411365415988     
 H      6.8878858193624106        4.5500319820633823        34.241305252352305     
 H      7.2296867040743997        4.6986300117897102        16.462824984321138     
 H      7.7384388477426418        8.0135029744568342        27.031440873446719     
 H      5.9719158080410191        4.6141679491741243        1.7879394384708143     
 H      8.1196775451017924        5.4010805811159388        35.659570913427494     
 H      6.1892193163116973        8.4436632898731094        22.001850877629959     
 H      7.3502409164622406        4.6948828680253216        30.399898981886903     
 H      5.5467783154186430        8.2123009530416908        29.182094404126527     
 H      6.6904941560711721        4.5637983020646073        35.508556618645741     
 H      7.0596704798047591        8.3904148932006883        19.048437990346848     
 H      5.3906981594062247        8.1269219530362111        17.907211355243817     
 H      7.4356944260697011        8.2302439891853520        15.115386572334536     
 H      8.4970628842799698        6.5153457990391042        19.304706444941790     
 H      5.3761077166162137        4.8526889710913874        32.802298371455620     
 H      6.8469458643184735        4.5701041090802352        9.4151506579174917     
 H      4.5797101789846000        6.7168064441221205        21.869249110790577     
 H      4.7941423282071440        5.4770544091641726        21.625606338449458     
 H      6.7713426493327713        8.4765191116470877        16.053174314358028     
 H      8.2823605839976153        5.7394699710891341        33.201901784006068     
 H      8.0979854172178705        7.6156841929873877        19.153210275472457     
 H      8.4873231627783348        6.3603442732965485        12.065230254962239     
 H      4.7181733285238590        5.6307813214844469        7.2318354776836973     
 H      8.1740217900242964        7.5239574927610189        25.197350502583475     
 H      5.6764134881286772        8.3214139369145794        13.738231740497962     
 H      5.2372720946856086        8.0471724366238000        10.770681407699348     
 H      6.7624612241557678        8.4756181972861793        39.238435549752381     
 H      4.6566051455854636        7.2696433825846141        22.786081276451135     
 H      7.6558150040221724        4.8821863786181821        20.396021015305372     
 H      8.1722579864870291        7.3088732388667106        26.221988629119760     
 H      6.2943896566067234        4.5266807642854046        6.1784670375100124     
 H      5.1458518118754997        5.1143555220759929        35.302119629581817     
 H      8.0247973635437244        7.7690987635662117        14.211078958074106     
 H      6.6508932366916014        8.4890145493430378        30.975151904786159     
 H      7.9159782129753671        7.9017204788080546        16.133166281754697     
 H      6.4485671286767534        8.4906665520779665        29.713773289627454     
 H      6.8741603867963157        8.4337779060609552        14.058383069194182     
 H      7.9743597324716928        7.7621960579751077        29.558618344897774     
 H      7.2175800570035262        4.6914839836355604        16.518884241685615     
 H      5.4785190774866868        4.7927191736007577        31.538722849055102     
 H      7.2582704182360285        4.6513160457911278        16.467930735094924     
 H      4.7574340319509547        7.4641063666551917        13.839641851034797     
 H      7.3619324491648923        8.2948084016631451        30.253074529248320     
 H      4.7840731331388975        5.4926398667271110        39.082668922490839     
 H      7.2579435236146148        8.3495150093994912        24.070544381631297     
 H      4.7020366464464214        7.2876128768509423        33.132827316734335     
 H      7.2434585275211250        4.6656276551430897        16.426871950839690     
 H      8.4869287102228270        6.5335447770436010        24.281765115579649     
 H      6.5827934659910907        4.5264152923790366        15.491559160280355     
 H      7.8329791500210932        7.9768922129248203        18.096898408852208     
 H      8.1597908991626813        7.5076213189388428        32.131075655063547     
 H      4.5133662774460275        6.3433511509338301        39.605845152105360     
 H      7.7077291093753102        5.0336314035356713        7.6062911604293131     
 H      6.3409797844572404        4.5104001350852903        20.504029316072081     
 H      8.3962084126032863        5.9041524325106085        13.396850278052048     
 H      4.5553334993581318        6.8746307876343282        19.811391484406641     
 H      4.7464543586949199        5.6756883226409416        12.631536550260632     
 H      6.8541378765761412        8.4522923319176719        33.492688008049541     
 H      8.0580707476533640        7.7463601762360943        4.7715279512991575     
 H      4.8609540462554577        7.5533693799157948        18.811865118406576     
 H      5.1098886365455156        7.8973983818796567        14.920060569808125     
 H      8.2487498981298515        5.5747993788455412        8.3128564461180741     
 H      7.4309952195001658        4.7387175634296685        18.413839762403835     
 H      7.8364315546846939        5.0475554337955995        17.389851898448011     
 H      4.6925612059445934        5.7785404950123551        1.5620702440616874     
 H      8.4250014594582598        6.9893229381121866        18.228170681839476     
 H      8.4536517185685476        6.7081495526623547        23.208070322109386     
 H      8.4675698703755771        6.4980445315524369        14.234616256746232     
 H      8.3100443140067082        5.7277378978845785        18.292134636995321     
 H      6.9987710625399879        8.3978682268507985        34.785441063295750     
 H      4.6357697832454994        7.1752715093480495        31.900155975744543     
 H      6.7704104394804574        4.5369227067876086        9.3853925927542097     
 H      8.2697666345349692        5.5839212431344238        1.3538175616827748     
 H      6.9640988071593926        8.4450839363647106        1.7350752515368961     
 H      8.0543291681791054        5.2897794360332728        36.952438190178469     
 H      8.1251372238403672        5.3698978270736504        21.524175344418062     
 H      4.5075666418419598        6.5188539606014482        11.624962704839389     
 H      4.8744059105887292        7.5475507315934411        9.7547593771262857     
 H      6.8815808191658467        4.5432807164398499        1.2024387687805485     
 H      7.4566339019035164        4.7933796263223183        29.274373393187329     
 H      7.5052286599754536        4.7793409622317409        11.322949214362071     
 H      5.8431150178172535        4.6716235185819706        21.528938744615669     
 H      8.0047443303054759        5.2497332178054021        19.378937271698810     
 H      6.3267489432579422        8.4501834241566716        28.430805134996049     
 H      4.8670435991876602        7.6442208702907513        23.838446607100394     
 H      5.4305757303661686        4.8640434819529919        25.852018959430598     
 H      4.5688752896087141        6.0252992560834340        37.128308806419732     
 H      6.7790534052323741        4.5352818678640672        9.3569527055090287     
 H      7.0659643742013900        8.3847335586222798        8.8537576830833817     
 H      7.5776836897574649        4.8736944025962741        13.437298986720460     
 H      8.3009580507187710        7.3445544529914848        22.188237165090246     
 H      7.7366700642479929        8.0518164694125307        11.076529406538258     
 H      4.6275885880654304        5.8616949134559313        22.670533495085682     
 H      5.2241491101323652        5.0228829815716027        1.0672455425533576     
 H      4.5881612046130131        5.9963547105322066        30.076573634964454     
 H      8.0517720095417076        5.3430192174171491        29.983211859828014     
 H      5.3285397065171036        5.0209475201352403        34.002104506586235     
 H      4.7570700325183903        7.4544720474881743        8.4267657253015287     
 H      5.4679771007435347        8.2042819417777313        36.163818480686679     
 H      8.3687244138590895        5.7875656095226136        26.070892861645945     
 H      4.5572189150660751        6.1662020030826321        20.741013902067291     
 H      5.9369084403255554        4.6473775858834143        23.572208816137739     
 H      5.4648574134679864        8.1295886389067569        22.958433820855717     
 H      7.8045538319309911        7.9965107499385271        1.0299458265092918     
 H      6.6753989548852735        8.4637549031829575        10.832506161106030     
 H      5.7455962860202821        8.3251245923406589        38.694510031491724     
 H      5.6487724074353007        4.7196868179479390        37.297450932416901     
 H      8.1535597870865182        5.4132617245392378        14.368463400535495     
 H      7.9907022251303435        7.8033540623760649        21.112837457477696     
 H      6.1312807459198018        8.3803887975625937        22.025641917731729     
 H      5.5843867480190266        8.2495907816222456        37.451650448805886     
 H      5.3749101784416107        4.8911003361935146        22.756094185239800     
 H      6.5021788974762371        4.5007263481242994        13.506099456623017     
 H      8.4557445080946252        6.2179646854938229        3.3571532993978668     
 H      5.7174300599313543        4.6711685582867810        29.025997381954284     
 H      4.7279572658694473        7.3941806156090335        20.813494126449566     
 H      8.4301778552168241        6.0416762335250462        10.379624801667234     
 H      6.4039361078261763        4.5510998613348219        30.960323271662670     
 H      4.5234695666833771        6.2554880365626593        31.362213156658019     
 H      6.3164769861478680        8.4616333151558987        36.749092693626068     
 H      5.6006303342982058        8.2789960998542007        15.992081440579831     
 H      6.7931733239578342        4.5422939383722598        19.498076641505822     
 H      5.7913493573820141        4.6808372086619094        2.9862765779268354     
 H      8.3623169588138513        7.2109990934867039        15.205406323302455     
 H      8.4753230852703769        6.2333802181365670        17.283248099226562     
 H      5.5032227187247855        4.8436868341743500        17.614280769591652     
 H      7.7849591939098799        5.0369595619152028        6.4877254981974755     
 H      5.8759460299228703        4.6236545577683392        27.729746642956755     
 H      7.8428606638720089        7.9383871588573394        2.3383905641400187     
 H      6.8901223079543570        4.6333674806661636        8.1733905248956145     
 H      5.5931894268904365        4.7510106782009522        4.2419024138572459     
 H      7.3270651122282198        4.6901952028060672        37.459776471890045     
 H      4.8818477215746183        7.6419058560016744        11.923465836711397     
 H      4.5148104142589069        6.5073011195744019        6.7314568124203547     
 H      8.4679586693787936        6.2963981518176402        35.128217943905831     
 H      8.4777532670544247        6.6205346793994639        32.689933862779625     
 H      5.0132156394072940        7.8171253520922956        31.197747761492547     
 H      7.3423072300273082        8.2956137735686344        10.066649514594925     
 H      6.7532502729922621        4.5552730392442857        28.557759799908581     
 H      7.6421188496377068        4.8629468517291938        1.9419624270942928     
 H      4.5557225370334207        6.0589210831604214        15.699024149594015     
 H      5.4799692458365481        8.2190605067432791        3.1610238328517699     
 H      5.6526726067250408        8.2873074796650865        20.986516966695660     
 H      5.9342535151722791        8.3758108077504208        6.9482082003495931     
 H      5.9250409099823944        8.4107575740612965        32.940834445616346     
 H      6.3948420410661733        8.4938830152149585        3.6825951404663777     
 H      8.3354666237396966        5.7114106087781096        25.026911616107416     
 H      7.1277040612200402        8.3907160277641744        19.062710594324461     
 H      5.6907482570439951        8.3123626610624974        30.448490307894666     
 H      6.4483077253887719        4.5222501106267714        37.994749530486303     
 H      7.5693042027984516        4.8190209996717854        34.923614452763793     
 H      6.7671388618626445        4.5182642966028261        10.419147245145597     
 H      5.8877552780304399        8.4019484188116476        12.029560765139133     
 H      7.1288008070618840        4.6131269098251186        32.925082413045011     
 H      4.5766058251473378        7.0106453325542661        37.619010281268217     
 H      5.9291556369424123        4.6400871492725084        23.562714377751362     
 H      5.9780294311326152        4.5957054221879305        1.8126407589212992     
 H      4.8899479820834584        5.3637683257348323        4.7830749841126527     
 H      6.9515220305950161        8.3587008678105210       0.54125288795155546     
 H      7.8074936324774296        7.9937850309529717        23.104462672727522     
 H      4.5376517812461055        6.5049491240817243        26.893499377995191     
 H      8.4785837790538814        6.7784107808436076        23.180542583110320     
 H      6.0807870564324800        8.4338889593549933        24.000453653647853     
 H      8.1753111409274908        7.5895235367909049        12.210542827461007     
 H      4.7575325789553560        5.6092573853514578       0.27544412054130901     
 H      5.6052586857167048        4.7777733636063084        30.316151517573374     
 H      4.8282998242106832        5.4372711769871840        32.120827499799283     
 H      4.5184322113659405        6.6869300119804409        9.0742561853300554     
 H      7.4036727129183904        8.2071010314428179        38.507530772921832     
 H      8.3252505915912884        7.3106086060551423        8.4950751254615451     
 H      7.7783481244417247        5.0083877168786994       0.68022627372435240     
 H      8.4072983988468142        6.9696704432235084        11.191678940265740     
 H      4.9834800004904292        5.1986291938449103        11.731577638204147     
 H      5.0337868036059117        7.8121539768151296        21.870373609592708     
 H      8.4908591700005083        6.6528100997249107        32.677788616063765     
 H      8.4401493003232666        6.1957303860141630        3.3647705113590378     
 H      8.4152658838969643        6.0606024891542010        30.602841621417308     
 H      8.4197809961577335        6.9511353726119847        18.255316571567189     
 H      8.3218141265582801        6.9272616149863522        37.101823509295109     
 H      7.2606993937011000        8.3431678179285207        17.107773806591485     
 H      7.2852704275811018        4.6669910637620919        23.410298702168511     
 H      4.5560078928054519        6.4621236886265327       0.83647239442187693     
 H      7.9129125073451858        7.9072483052632592        28.284395443365710     
 H      5.5026086376316137        4.8213146986148079        5.4869839037100183     
 H      8.4065519947017471        6.0128690046626243        15.296741781905613     
 H      8.1947472945648965        5.4518099345967084        9.5803023184166385     
 H      4.5048709658142227        6.5033231280092600        10.142943366845863     
 H      4.5423267207776448        6.6477698170063118        9.0547356309685831     
 H      5.6980165407614587        4.6989025733317646        3.0152223980576576     
 H      6.6404956515598093        4.5351230177637039        12.466975632909666     
 H      4.6314689257735315        5.8285903678227351        17.760567153975483     
 H      6.0673388141094247        4.5503024964478787        33.500098474216195     
 H      4.5312170592070125        6.7006307862005849        35.094243075108032     
 H      5.3599256541338489        8.1396804216028453        34.946468966432725     
 H      7.1755070461896056        8.3618245753239631        12.114443604715921     
 H      6.2153055942638362        4.5208938461028625        25.291476561411759     
 H      8.1426089341076491        5.3867744925969978        28.646693997528544     
 H      7.4842528219165372        8.2284967552047306        5.4598064646223934     
 H      8.2788202937354196        5.7423331653565182        7.0344509205234358     
 H      8.4839590312084852        6.7032420724344384        16.298427427300695     
 H      8.2356818052272338        7.3244147847140413        34.590641036316036     
 H      7.7688789250907888        4.9595827802967278        33.673086317765879     
 H      4.6488176126000678        5.7671106230211064        27.591924003239566     
 H      7.9549126950588374        5.2217947643111211        5.1131709641385461     
 H      7.7423825384471856        8.0632213987953598        18.106336841209785     
 H      4.9162203878048949        7.7135786740457810        3.9107807713707468     
 H      4.5663162333090783        6.5396426577846443        7.8194731663289785     
 H      5.9636249072638821        8.4121930941128884        25.913858536368952     
 H      5.0424645852281156        5.1912850685861587        36.573098217113319     
 H      4.7734607799015727        7.4255656063883713        27.394486297968125     
 H      6.7494859229890398        8.4690173270913327        6.2151300137771379     
 H      4.5843655747555534        7.0616504791885184        17.807016849213305     
 H      5.2999759715633141        4.9452213053200680        15.550953972966203     
 H      6.2357657147370640        8.4589990123742016        2.4346757870762321     
 H      7.6921581890322548        4.9088485686169676        10.302773262210271     
 H      4.5342241022704286        6.5321371649734283        16.726012494041150     
 H      4.5243559062802445        6.7035215070789436        28.154093987736566     
 H      8.0229072283757876        7.6365089005976294        37.817733975512276     
 H      7.1962802225115929        8.3413508575919870        28.951445515503259     
 H      7.7948789226608515        5.0265151870640441        39.393662589282769     
 H      7.3219483272856589        8.3000270797152353        9.9823874903289411     
 H      6.1876424524857310        8.4419203802511493        21.989039112186230     
 H      4.7101603629464952        7.2888369664427142        26.127138549608009     
 H      5.1779675320279157        7.9710941439718441        32.382804628851140     
 H      4.9255884240389802        7.6846314512770668        36.887652006969631     
 H      7.7025132572390804        4.9235553124451483        15.399008772630326     
 H      6.3719443003923679        4.5154744408744056        4.9461827229850917     
 H      4.5536434643396007        6.1829376811300447        38.332442756583490     
 H      6.8279232679994477        4.5508228739605023        27.359985941112257     
 H      7.5806119869597719        8.1755950094991547        39.739939275570585     
 H      4.7535157056088693        5.6189125323655862        19.680251815991262     
 H      5.6222240033397055        4.7188207502369917        12.540827313015910     
 H      7.1443197501524249        4.6327760282093493        21.447302777651615     
 H      5.2108667195595384        7.9885675320246223        19.896137931113987     
 H      6.7018903705065771        4.5199054656496269        17.426980703660217     
 H      5.2904198109113345        8.0827790155125090        26.608385432356858     
 H      5.2406026202401836        8.0377703103821396        33.709848955996740     
 H      5.2786677707148586        8.0708310210379928        12.851653084143349     
 H      8.4805458550320942        6.3287327820349493        28.103448644758345     
 H      8.2527901194432634        5.5375196066266001        34.438430180950533     
 H      6.6356317723390976        8.4935976615835660        17.999092275240468     
 H      8.4737742991361813        6.5320694915933419        7.8010937160294418     
 H      5.4020996049797692        4.8602956683145271        6.6976590684413146     
 H      7.1113651946924508        8.3792401951965001        27.744780415487345     
 H      7.6756888244294821        4.9095604613807682        26.752479070353605     
 H      7.1681757842096854        8.3596395974310198        36.048593115884920     
 H      8.3858528179182379        6.2124187713760461        29.408916308012707     
 H      4.8572304290824251        7.5841892774190169        11.931334476828493     
 H      5.0837259228235929        5.1060384614987369        28.317687935205804     
 H      4.9977072407113603        7.7380727316968718        16.888148271192343     
 H      5.2101312944832783        7.9085924741866434        24.917214418353815     
 H      8.4224496132404312        6.8197895405045967        31.351884338516374     
 H      4.9300966192922866        5.3392987036902744        4.7344285859447863     
 H      5.3768570042828712        4.8684551901190050        32.785433244229253     
 H      8.0724497187340614        7.6889199066472349        30.760530725936725     
 H      7.5924323773076168        8.1079582346143724        6.8156292149642423     
 H      7.1628137993384566        4.6388989465955515        38.688705700366278     
 H      6.9927212617905425        4.6293379854611363        6.9547571627903277     
 H      4.7790092227831265        7.4232248845165607        13.861529989716542     
 H      5.1505394678742364        7.9757615594950524        6.4306878549010449     
 H      8.4232192068769898        7.0061206288029707        4.0708571565840090     
 H      7.9067710972692620        7.8591005180746958        3.5091708157201884     
 H      8.2077956442741797        7.5375391323364171        10.244898848003343     
 H      4.5510505200864984        6.4875988982049089        23.753147775909493     
 H      8.2549145728559594        7.4038536302558375        33.407195366622162     
 H      4.8318028977788670        5.5857831563944975        14.769455706087172     
 H      6.5203703343629442        4.5512012099189558        11.450295100825571     
 H      6.1315021956326428        8.4469327634577773        27.202893332875259     
 H      6.4738150512067989        4.5026548606511039        36.745411146459176     
 H      6.2102131877491304        4.5847370958155240        32.250157668215955     
 H      4.8423867687004272        7.5885313239986525        2.6190390997338286     
 H      8.4947551768461054        6.5181343991423573       0.87768011559164283     
 H      6.3680135482391709        4.5144227657456257        37.979684543235457     
 H      7.5012007307258664        4.7786265500147911        36.190291003779535     
 H      7.5904100574341937        4.8544986032899509        27.964225843980099     
 H      4.6441828541436507        5.8780739916283986        35.845537635883595     
 H      6.2549334069818912        8.4268361713846058        35.515321715339610     
 H      5.5350869769548074        4.7865018690107410        38.530918412065105     
 H      7.3022138154700267        8.2955762255990244        4.1885281258427263     
 H      5.5876043950887029        4.7279929172333688        30.330014588153279     
 H      7.7686152998258624        8.0315825342406075        8.0601240725778087     
 H      5.2245141875347931        4.9876750627849908        1.0510950184469843     
 H      4.7754355015930683        7.4853159873441379        27.310442531903071     
 H      8.4261496278812089        6.6609119145347453        39.662967633419413     
 H      4.6203737322458247        7.0175926206711452        17.828333388167529     
 H      6.8070894943270170        8.4133529728488909        25.067482808117202     
 H      5.5998554532589830        4.7384333983230134        30.252240417919520     
 H      8.2907305890551068        7.3667871299426917        22.174202504577977     
 H      6.0127734621636009        4.5872797218474375        16.562350224198354     
 H      4.7084177004720598        7.3495888796489997        7.2478527828761292     
 H      8.4452345009227567        6.8590505953096956        31.279539562890207     
 H      5.6876199713881626        4.6771032198174449        19.683095524830094     
 H      7.9152573747687445        5.1179502020260177        32.400782789330492     
 H      6.1284562469439523        8.4162518927343228        34.202631993459541     
 H      6.2352911402215483        8.4800600100035464        15.011508300344726     
 H      7.6932758935149126        8.1011515817861603        34.059456839646863     
 H      4.5089942513786756        6.5040235633344325        18.819780135782846     
 H      4.7254744483809050        5.6682192207234934        26.325593423591890     
 H      8.1822662921423923        5.5024025554916474        27.415142836040715     
 H      4.5559564666733552        6.2252188532144910        5.3507329060628521     
 H      5.5018690493300193        8.2131197396451743        8.9944235803792960     
 H      8.3608551174864196        7.0166381348167928        13.294749648295401     
 H      7.4474422313129098        8.2543864335528649        22.052247837886966     
 H      8.3071710119284212        7.1133845634778101        20.188487399623892     
 H      7.5151112776414815        8.2189456001066148        31.527086440892109     
 H      5.1017670630323568        5.1021132847335728        2.2750723770392063     
 H      5.8009805254662341        8.3501539738503823        18.991096784679801     
 H      4.5098808971938542        6.6211802556533108        14.794504534498584     
 H      8.2281369105236255        7.4344643080766017       0.30106377751906344     
 H      6.9921701357701069        4.5854031600942244        14.431050127291455     
 H      4.6201569196561669        7.1009585319164126        24.895282999161541     
 H      6.7368914275528855        4.5204209375761168        17.470599240931676     
 H      4.5324018172266110        6.7422401280556805        28.101670480713505     
 H      5.0905471482319937        7.8969358495687656        39.431813666156678     
 H      8.1372818418691644        7.5000222556936738        39.039279954913461     
 H      8.3482697961721630        5.9017834807125871        5.8159588770876276     
 H      6.4953130049512513        4.5011529531599823        22.596345226061217     
 H      4.6806531928087960        7.2026176557973027        15.759399077335903     
 H      8.3856624114248675        7.1533857128635354        35.849791074012586     
 H      7.9219336380090590        7.8645269040888657        9.2265356917008070     
 H      6.1539183905070205        8.4304290432246827        22.018297703988768     
 H      4.5400568493688978        6.8183910813674888        19.779749815129396     
 H      6.1245393196115714        8.4452829686531228        34.182177536561646     
 H      4.5576600424954830        6.4069043608619003        25.663416003043569     
 H      5.8263781081908883        8.3564902044903651        31.706237211217619     
 H      5.6257838161062850        4.7072372648870884        4.2612133967611774     
 H      6.9720691788167599        4.5614108857639142        25.994830784945258     
 H      6.2387171428493060        4.5413770015351380        39.259864961194239     
 H      4.5915875383895619        6.9580426278871768        12.714650496999552     
 H      6.2214726096897239        8.4609475874268814        35.465945998609222     
 H      4.6999328341960345        7.3629011795743304        20.850056067838764     
 H      8.4298173731421819        6.9977762334434681        30.094259926338630     
 H      8.4743804419382478        6.2255722946242020        36.329938042768354     
 H      4.8782068112498722        7.5997344337988437        28.636150151407950     
 H      5.7825667602675779        8.3434801340123155        5.6702195311178123     
 H      5.1859038228222882        5.0063730631118348        13.473905428503107     
 H      5.5210937109791436        4.8265832883840210        5.5051601368445215     
 H      7.7941612990358902        4.9825852257644794       0.68742598180485281     
 H      6.0470400601495724        8.3798886445880587        16.956738158466795     
 H      8.1817319255786334        5.4474592994753204        16.384078195856382     
 H      6.4819751434847523        8.4266092919687736        13.064595719826828     
 H      4.5657694031411697        6.0479749833806871        4.0661843739626917     
 H      7.8135186608528464        7.9801943683797818        11.222958898275134     
 H      8.2094532030112770        7.5029201369112348        24.105599243528275     
 H      8.4408315085190022        6.6614209535721631        6.5028067497414330     
 H      6.0560250540107736        4.5623831988052492        16.572819292553817     
 H      4.6841737824349430        5.8875485036719040        35.807855811824176     
 H      5.5055358637465588        8.2021574377665782        3.1782871448472467     
 H      8.2475368613857061        7.4609505635022755        7.2396380080267422     
