          37

 H      5.3830372128446733        4.5681417276959850        4.5432131003684857     
 H      5.3868747143161428        6.4872701510284534        34.022357187963152     
 H      5.5775330564156311        4.5597236827628773        10.071459783387910     
 H      4.5520971141388928        5.4911125774377183        1.0448109395861507     
 H      6.4861546336467946        5.3918731519238303        23.745359755624662     
 H      5.3899221348331556        5.5052294537520003        33.746754332621187     
 H      5.4806190443384795        5.4667911411978292        3.9338542843680533     
 H      6.2881216712997006        5.4202121272326940        29.878772746277455     
 H      6.3929741834092475        5.1021784460252873        24.733153538089699     
 H      5.5400019532262279        5.4849847834195913        24.126077318757829     
 H      5.5836340428094688        4.5126941441020438        24.499676556632334     
 H      4.9324946012306103        4.8264663540084172        36.649638418615524     
 H      6.3728725789854392        5.2006498032139259        10.284339008290074     
 H      5.3172471921954569        6.2851462154649278        17.346975727289227     
 H      5.2912666355489790        6.4183704289232777        27.198244727761935     
 H      5.3768649579367409        5.5610480796504760        18.129852882411107     
 H      4.6414024946559511        6.0089601086147884        33.241073017122361     
 H      4.5794399573897477        5.6459970728838131        27.136705564339625     
 H      4.6202983171425984        5.5226450705808361        17.333223874637397     
 H      4.6161892698969327        5.7386054720048731        13.887252758623262     
 H      5.4945260433333445        5.8074989082545656        20.347577244011198     
 H      6.0151985893311108        4.7307749692410548        30.798900231951368     
 H      4.5826186963640341        5.1780861686017872        4.5377228855392637     
 H      5.4583679013101989        6.4320565462187531        14.013843694832319     
 H      5.6282854343532636        4.5199200596039413        11.206748126462738     
 H      5.4531345021187114        5.4328919766234813       0.45366165298336142     
 H      6.3398026191074335        5.2297577846581103        11.360190745227698     
 H      5.3147430988680728        4.5604425715720769        37.578725766196435     
 H      5.6295939065157636        4.5163449394598185        29.863994344182231     
 H      4.5420673563098344        5.3213728151585356        37.578648154573216     
 H      6.3736398028452443        5.5794018959623113        7.2692880188990427     
 H      5.5665733511326332        6.3685456683116204        7.4732337420641004     
 H      5.1736659248260377        6.4413005625564912        21.241511139849724     
 H      5.2014582958332696        4.6604082201696277        1.0464605360267976     
 H      5.4857607439573046        5.4846066496836388        37.212319823181076     
 H      4.5404667950055719        5.6035264830618532        21.254269257122971     
 H      5.4304316206250149        5.5163660032054613        14.441207761563918     
