          25

 H      6.4662299773619685        5.6123355620936737        28.751413050014854     
 H      5.4171954233272483        4.5216179134221814        4.2766548487968006     
 H      5.5927387444156889        6.3408689458580829        22.384660899187242     
 H      5.5220610226946301        6.1640137843438270        31.759503242003024     
 H      4.5896427566287317        5.4268352134432991        4.4514039041252769     
 H      6.3210215323814252        5.5087430439542224        38.200205911739722     
 H      5.6801752101548111        6.4828950343057938        38.210055592965340     
 H      5.4727589434127797        4.5048622589149465        35.278633703884672     
 H      5.6281473990275313        6.3997997862715206        7.8138508564897657     
 H      6.1386235498213146        5.4711876831113830        15.860264745424457     
 H      4.6504815770169348        5.9066695787422594        12.897662526028444     
 H      6.3956874411505469        5.1410004429201130        10.491889306265106     
 H      5.5037085641042287        4.5173968353672116        15.603444819243281     
 H      6.2451304894150033        5.8489498403960951        32.521121177703698     
 H      4.5898550056093450        5.4645046063657059        25.721602326285854     
 H      4.7580517413515819        4.8794157643546479        19.138773758054985     
 H      5.5386984582743848        6.3980995133793099        28.752530940632802     
 H      5.2359469182532532        4.6267973641324751        25.665279474653360     
 H      4.5454298680811167        5.6808917033298849        1.2826007133281454     
 H      5.4731187159869519        4.5373501319511433        19.981388657893355     
 H      5.4831458142519303        6.2692066656042638        1.5821088568285229     
 H      5.5739197824233058        4.6098356223713175        10.251591481298995     
 H      4.6271873151677028        5.1589545409635864        35.225967707075498     
 H      6.4482492414879991        5.5720602641355015        22.677210060474046     
 H      6.2581592205823613        5.7236402537659412        7.3920103430941024     
