         100

 H      8.1765782060029881        5.5324927747352453        26.351972724261504     
 H      7.4721304697840871        9.1896716394411868        16.422395160197009     
 H      6.1060851825399434        6.4026090005417728        9.8799679330420851     
 H      5.6704271012983334        8.0293772862711368        30.022218657948013     
 H      8.2836532045351845        5.7500457968247236       0.11826729834075089     
 H      7.8335888868533168        9.1398871904232237        7.2754057267240499     
 H      9.2009462575702905        7.2502939860834763        7.6444692734018966     
 H      6.9840258458505700        9.2106278603594589        25.665206977587435     
 H      5.3119299858904832        7.5843611849747221        33.643024721207389     
 H      9.2264993895648448        7.2514999584613440        12.734940854092745     
 H      6.2536716343282706        5.5922929862042707        5.7873987495700714     
 H      6.2018157059759238        8.8796516082681283        30.189245375267664     
 H      5.3901348232047930        7.3992641685448337        37.625462723467926     
 H      8.3663616985329678        5.7448369481185848        31.810086723271986     
 H      8.2975692308187874        8.5994022356169122        21.764062537968709     
 H      8.9587995688834852        8.1253949109198054        3.9176334302329381     
 H      5.6474743818692641        6.1435195510586560        1.2249103971104243     
 H      8.9018898732002540        8.2474927145530508        17.216198680029457     
 H      5.7951512329449644        6.3307431943653798        5.1877983385948587     
 H      7.3164055779386148        9.2388291200542092        8.1509314510341291     
 H      8.9829975330002494        8.1114901328888944        2.8651269779568240     
 H      6.2918926967136803        6.2000844311946501        14.683175652784092     
 H      5.2909605549161114        7.1249878822920323        13.743907193119908     
 H      6.2526412634495978        5.5225680809913342        10.392743121970872     
 H      6.2112455201254146        5.5443645848386192        22.409904423402565     
 H      5.6059340672243474        6.1344556196051432        13.863362979872374     
 H      9.2184964409721477        7.0451989207529859        27.334177175031044     
 H      8.6474254806045856        6.2081783572649538        36.205344744245629     
 H      8.9457286354852155        6.3055855540162469        25.898249918659445     
 H      5.5756869929085955        6.2481143019509817        2.2961858410133384     
 H      8.5100407670102403        7.9885095440278588        7.4282793076509241     
 H      5.2865759362771501        7.1630677006805525        19.250124773041488     
 H      8.9736791762359829        8.0146375695587526        8.3764439303527016     
 H      8.3744381894186795        8.6347319335527501        11.792028424424538     
 H      7.5293598441193517        5.3543714407517342        39.523029183757011     
 H      5.4085008316667826        6.9668664618538090        18.254628442493473     
 H      6.4443464346265289        8.4147335391547529        37.856538784709421     
 H      7.5566677566274221        9.2247397959092172        11.671753118052372     
 H      5.5403738137754210        8.1749601901532039        38.274243062224429     
 H      7.2614441186969341        5.3763382655365746        26.884004309651530     
 H      7.0828886025741973        9.1547608483600769        29.717586840564469     
 H      8.2926609236531341        8.5471738548669709        16.362775836235187     
 H      7.9894011781613665        9.1029794670109130        12.592857768997144     
 H      9.2339635174710146        7.2481971726306336        36.025572881798269     
 H      8.7224408029550098        8.3993281391871051        12.795151822091272     
 H      9.0699334919755756        7.9712466582195978        21.598294866277474     
 H      6.6074321783176968        8.2526122389489345        33.635257520646064     
 H      6.8894093194032529        5.4000591257370854        9.5423733679007565     
 H      7.2381038133316915        5.2921607472426437        10.540135309034714     
 H      6.0967770875858864        8.8615716513358240        38.800274855520072     
 H      5.6074478693867791        6.1970984649396801        6.3266744144603972     
 H      5.3166194230313142        6.9867069356366533        14.748496698349211     
 H      9.2189846528494979        7.3977413625402137        20.768164403004569     
 H      7.1964506979951004        9.2266698732357426        33.559489697810378     
 H      9.0129160148132890        6.3493087031081528        39.783699881374375     
 H      6.3145358305261388        6.4294509779975373        19.004864485365399     
 H      7.6958673506404303        5.3110108563001868        30.926012944041670     
 H      8.6938154866673703        6.2338622262659902        26.882004249018632     
 H      8.7127491905753303        8.3755230137561423        20.733586215375659     
 H      9.0233494487573100        6.4078626197142459        30.785932642353700     
 H      9.0978615576000834        7.7283957325703252        16.376862860618331     
 H      6.2445830080553932        5.6556602488994168        23.412806639961801     
 H      9.2430444712986866        7.2858280428797215        17.266364428677029     
 H      7.1321761382820474        5.2614928472448597        22.741167117861764     
 H      6.0068794458196875        5.7769110859998163        18.186818332266849     
 H      5.2713133970007959        7.0617280661131137        1.6894786791722747     
 H      8.3141020982875986        8.9115676918233966        3.8142614971902793     
 H      7.3255603031212750        9.2161118800949673        3.5788504150466518     
 H      5.2822891951925763        7.3129599097098525        29.365611578174498     
 H      7.0647258664643147        5.3501587773852544        14.783048721770079     
 H      7.2206290361141985        5.2840088173070994        5.5128875786681464     
 H      5.5068928405419566        8.2036471824341373        25.701465638122968     
 H      8.0904922137205020        9.0257182147601895        17.277759622576113     
 H      8.1456800582437516        5.5851700724581299        27.415065030558686     
 H      5.2786723745987496        7.0405360298552031        10.050899086521856     
 H      8.3984301436694260        5.6201694155526924        39.079690469893009     
 H      9.2356512934954207        7.1217737578773779        31.607417670748561     
 H      6.5705817049247814        8.9714025616293878        34.399958157730232     
 H      5.6576872910314986        8.4470756193266929        34.296081040671297     
 H      8.3324871695868215        5.6284778037125953        35.443910235548223     
 H      8.2844688737348058        8.8721904097000515        8.1821344405957444     
 H      6.4070135641174835        8.2728741434508279        29.211355142866360     
 H      7.0413553743805517        9.2006329755070038        38.193461956989623     
 H      6.2695664145641414        8.7806485809076378        26.253688050598285     
 H      5.5317975839989053        6.2862652425965830        22.718350582779362     
 H      6.3724777692653980        5.4639581945216236        13.953569193274840     
 H      7.3820142687089945        5.2835954246414580        35.536760165708095     
 H      8.9104902763978604        8.3221070834797093        22.642253669212504     
 H      9.2371330389532833        7.2754948400719579        3.4217212482626755     
 H      6.8472989931495674        9.1933807062941231        39.392529945065085     
 H      5.3292768134838573        7.0953783963685995        5.7483141171180305     
 H      9.0911548075207591        6.4717110393448634        35.348657260487329     
 H      7.2830686372695839        9.2051688816848838        21.573058905127084     
 H      6.2036124961713677        8.8983655603935574        25.119635601790101     
 H      6.7231833472988312        5.3640935763453577        18.854320686580643     
 H      9.1137471019395164        7.9378194319447566        11.974634198915663     
 H      7.4922377927433788        5.2746843777965653        31.977613874369275     
 H      8.1435765919797269        8.7392708231229310        2.8197050114715982     
 H      6.4032387927774561        5.5153880922017127        4.6975642409791440     
 H      7.9209625733491462        9.1282090523171071        20.791517987660225     
