          37

 H      6.1728834360831666        7.1643145484399282        4.6955909140651455     
 H      6.2222416216602037        6.2670328560399602        8.8449439905443725     
 H      5.3608872600078055        6.2874766090952026        39.383409089964559     
 H      6.1782621204399550        6.2521649146163911        21.917591366106763     
 H      5.5049998875449182        6.3209459509103256        4.6000739080380750     
 H      5.2997921960607375        6.3174644783001899        25.881335071549142     
 H      5.2711566167138164        6.3033535168599828        17.971733515192831     
 H      6.2062277026893504        6.2777580367601002        17.490354651993083     
 H      6.1633924524857893        7.1297858230693851        8.2765464011452234     
 H      6.2029738872374152        7.2155097591699997        3.6233409929673455     
 H      5.9872938848554762        7.2047183525052390        17.911971563078506     
 H      6.2271960544139100        7.2092183995391776        31.344703120165324     
 H      5.6210271210036744        7.0252947848413925       0.17286323177713753     
 H      6.2393682373675512        7.0938435705885228        39.268002784168750     
 H      5.6554625397094016        7.0063015978916372        21.395070509896108     
 H      5.3551723987770323        6.6369565321695223        9.3564361984245572     
 H      5.3776971814263588        6.6794426713870116        13.993667920205834     
 H      6.2414943446126436        6.6371541982835227        35.746275888469071     
 H      5.4639376103673056        6.2908058229908503        30.128145852901280     
 H      6.2223655529159867        6.2975953804022922        13.484719309560569     
 H      6.2292346412205450        7.0852219551726039        25.825400569598010     
 H      6.2342769835080416        7.1852163522645327        12.790630140541076     
 H      6.2393886211666594        7.2214902227331885        22.279949442143540     
 H      6.2438811545654209        6.2919103027833136        30.807907972556169     
 H      6.1648054334680955        7.0964330764723176        30.176112243146058     
 H      5.3175664762954744        6.5934888231251882        22.301833928468675     
 H      5.7084864320714095        7.0772371649044468        26.689567032771144     
 H      6.2425430413455461        6.2580365097704815        26.442617624721031     
 H      6.2344699827015457        7.2211288537791027        9.2864907761833297     
 H      5.2767348674051382        6.2994745919489636        31.401245025771367     
 H      6.2356228162225822        7.2490611508829224        13.890071136661076     
 H      5.3380412793310574        6.4082509800300755        8.2061865215017136     
 H      6.2180496151630953        6.2600245607676888        39.922547567564848     
 H      6.1870334394075144        7.2335879015120126        34.901021306817185     
 H      5.2985833331659951        6.4702941432149492        3.6147361358589509     
 H      5.2679410090324383        6.2899247757663304        35.836026912981296     
 H      5.7427389772341959        6.2620246077436521        34.947816982249435     
