         235

 H      4.8866423316164349        6.9343922847161634        30.430580940654902     
 H      6.9733195237231973        9.8938867207691903        28.520322739165355     
 H      9.9225621387963692        7.1890181312858266        20.461599506675306     
 H      5.2483076228570731        3.3219564588944972        36.171137661687702     
 H      6.4493658716367737        3.0161533486729271        24.246249924953677     
 H      5.0770667269444738        3.3280739214710708        27.182168335032223     
 H      7.0286782911010608        3.2151780633407951        8.5976038392929475     
 H      5.5095470397353354        3.3977351825523927        31.913157202646616     
 H      5.9410586762385176        3.1025886674529870        8.5108644569603609     
 H      7.0064842150030771        9.9296770353666535        19.851016944330940     
 H      6.7252623710878678        9.8324346147269566        11.453088526491609     
 H      7.8246656831351995        3.3867351379925728        30.400639362506599     
 H      9.4378349245411588        8.3375239334304023        29.763832392777537     
 H      9.9586318009210260        6.6889227303701659        18.448212634467492     
 H      9.4241413639547602        4.6372467417813059        19.163026740071420     
 H      6.5060769426741238        4.9779946011047667        21.060295262942908     
 H      6.0726561349939496        9.9054309718292242        37.326670130505583     
 H      9.7912817873863691        6.5762495285946541        16.372669695650945     
 H      8.0672843566628885        7.0363024476553813        17.431016214944862     
 H      9.7938536418732287        6.3063046012312496        31.622258548361305     
 H      6.8570293980545332        7.7092612108137608        12.492694509313662     
 H      8.7291624582451792        3.8094394943282137        32.901794330001813     
 H      3.7421219588620329        4.5614003247441390        31.653898330926506     
 H      8.5378603715822550        3.7415339337900848        6.6528951996491958     
 H      7.6531105997995486        5.5689015357979450        8.9407637988873674     
 H      5.3067027138346976        9.7253713253034402        32.920020853278174     
 H      9.9903748072141560        6.6817882223750189        12.032873136172263     
 H      7.0680240999520940        9.7664487097873458        30.600194936016241     
 H      7.3864258076765044        3.2022958176199028        22.101312156128156     
 H      9.7599130328898021        6.5664875049038400        22.896814615105278     
 H      3.1683831636342275        6.2763889927166998        19.006085806780650     
 H      7.3350215115165005        3.1278471771445506        10.881396634933406     
 H      9.1776138592730980        4.4264392985919239        34.848722420535850     
 H      6.5386274546742280        5.0115847193194742        11.824395039082516     
 H      5.0841741430171687        5.6600183466161438        36.988379548604961     
 H      7.8654087260062902        3.2968473429131735        12.901364452168115     
 H      3.9318509745803722        4.1754917310087070        23.351994514450784     
 H      7.9677236729192407        5.9750673181684864        20.101027483957321     
 H      6.5905605288530857        9.8348735091822519        6.7346226356276118     
 H      4.9503556918943090        6.3983279023070612        39.438245738723779     
 H      6.3110013038807580        5.7674844640422780        16.844775588756335     
 H      8.4725408371189559        9.3812198747862023        18.080715535193281     
 H      9.5722509133306399        5.0323144204637513        27.704767925737936     
 H      6.5951263877122370        8.0737903081552691        25.312400213548315     
 H      7.1324694554018668        5.1685695707094732        2.8795890505156376     
 H      3.2391531761017887        5.3834553437279498        14.823811305176248     
 H      9.3070909056411093        8.5154724412702940        10.966532732857981     
 H      5.0686606830707293        7.2895333125713320        4.7460056226737088E-002
 H      3.2228164607993013        6.9414279794418867        3.1696420006598856     
 H      9.0176300115219217        4.1867170306137460        14.712513742709419     
 H      9.5372896937952305        8.2319351280331023        25.005018429914713     
 H      9.3183453755315266        4.6394857745309110        12.219070054105019     
 H      3.3623736274885587        5.0789293796160955        23.446075445540032     
 H      6.0354902765505001        8.2308087518782944        31.515478316416640     
 H      7.7543621256032385        6.0319305721221657        39.541049517968958     
 H      6.0831855085115043        3.4663253192547350        2.5020431464232562     
 H      4.2104637293669844        4.0111273192601082        6.3896918226383654     
 H      6.4340016075474029        4.7134888723916486        16.700223151365250     
 H      3.2357686627942206        7.7149099970258534        20.936435721239750     
 H      7.7537222570438562        7.6855640295195657        1.1444691007179058     
 H      4.5319176525164213        9.1761418823734271        32.503778799086852     
 H      7.9460018339593903        9.6619273243733321        20.258824364775041     
 H      8.3469881692749901        3.6560194243910384        34.876556784386132     
 H      3.3687569732267515        5.0846947043506221        38.044417925024732     
 H      9.2971700702568203        8.4421399012197611        6.8727525597768091     
 H      4.6644945089946983        3.5602109408995020        38.147993752274218     
 H      8.5510063140306762        5.2305146440135841        1.3311177871493622     
 H      8.6018822105607846        9.2595491372104863        9.2355991771455503     
 H      9.6506820304642869        7.7021948372796789        18.517408679503628     
 H      7.9763040016565894        5.5822061339131981        15.721606869931032     
 H      7.7560090465923190        5.2577088752900174        29.347470113409202     
 H      3.1530472064002559        5.7462231020481429       0.56493373527269997     
 H      6.2764710131277246        3.0132585544534227        22.110182089359746     
 H      3.3418332728706002        5.3119722210615903        25.638576496519317     
 H      7.8686009532648198        3.3669649543718143        32.646190682866340     
 H      7.4905036363759434        7.5031178856257732        3.6876824517434392     
 H      4.9429484180393137        6.5539616373781238        8.4469332633504930     
 H      4.1877667679365320        8.8758927943215067        39.134547469424177     
 H      3.9579981423035266        4.2206271090470997        19.688913352206928     
 H      3.6099714788509099        8.3804437805959928        14.736914767394156     
 H      8.6932229658863829        3.8225500596489361        36.859345460968726     
 H      6.6502087372332221        8.2428002707052297        27.336412903257859     
 H      3.9414831041414868        4.1394342239900119        11.290682388950032     
 H      5.1693295719167960        5.7651095852077177        13.088265784985026     
 H      8.9635314822043490        4.4169925829414032        21.205382555314308     
 H      3.8813273960488135        4.2953696637921945        25.511759741482152     
 H      5.5314876738600924        7.7044688332629336        18.450377380893720     
 H      3.5368690909249532        8.3233354511638833        25.267224029107432     
 H      3.4791264979556855        4.8517208656317923        17.628586344202848     
 H      5.1680462825996232        7.0072741954908508        4.5017684877613053     
 H      5.8814144756430435        3.1396636149540629        13.415695433022675     
 H      6.5593070245656779        8.1139309342524619        18.766355344226913     
 H      8.0940731301428688        9.4685867789112734        26.485916652294222     
 H      9.2194986445453804        4.4134314070449943        6.1875997204088007     
 H      8.2582712022621756        9.4595855957664288        22.587846281236409     
 H      5.5495300575868658        7.8395127485876213        25.381246916157892     
 H      3.4671786854324069        8.2080436150290534        11.402748258620496     
 H      4.7561225657486661        5.9678432150967700        6.1679633938891234     
 H      7.7112363443677827        9.5937293464980815        8.7766972627485238     
 H      8.1713153313729432        6.9841288503268473        26.172423494217533     
 H      6.5850804381221657        5.0722618460469366        35.726592643763389     
 H      4.9791469214470752        9.4604369430171733        3.7405068880934436     
 H      7.0015827317244979        6.7606520390378897        32.489046571797552     
 H      9.0752265117069051        8.7447116481537481        22.670190188380108     
 H      3.7299609664488389        8.5797053243851167        8.0047289369417687     
 H      9.8475253602528170        7.5053273349199969        22.436696052729616     
 H      4.0657888492595990        8.9864528309672718        19.256443024441165     
 H      4.8629669839118019        6.7033081630631193        20.168147445126660     
 H      4.4821236954501593        9.1255692189658291        17.289100656032396     
 H      8.4055334723494166        9.4262139238796898        13.710802363943705     
 H      3.7170102353063696        4.4714015922927901        33.672981714617727     
 H      8.9316467650921290        8.9531565331548464        2.2187375514523406     
 H      3.1492127249065320        7.4752874961000746        29.576318566353990     
 H      4.2601355445829290        3.8671355735909190        27.497838809250830     
 H      8.0664575138002093        7.1119327577441194        36.832638109802616     
 H      6.6529696044674838        8.0372516454729173        3.2193224145508710     
 H      3.0497645920921679        6.0122317526004432        38.576444221095137     
 H      8.0289305167328386        3.4267511199666325        8.5937279948026930     
 H      7.4200913777077133        3.2680681037639197        36.626895386807469     
 H      7.8818347827192081        7.4427485577952668        21.670241991327554     
 H      3.8385240826991822        8.7072490881813103        1.2209538180013138     
 H      7.4663087738760039        3.1679780798871104        24.124202699891487     
 H      8.6981806355478035        9.0784054304488073        5.8343806909148560E-002
 H      4.3265211672380435        5.1927885548298329        17.207448815920809     
 H      6.1811993057089962        3.0971556355115206        28.882118493555350     
 H      7.1524224906591627        3.1041697976540035        26.384596301885153     
 H      9.6895424466797024        5.1449621206763867        10.240445308676614     
 H      6.5788015665497728        7.1284818352062480        38.282609135080534     
 H      3.1656722257903547        5.5253662851208736        7.3669478548103493     
 H      8.1657067606419762        6.9691543640104134        32.793741865192800     
 H      5.3341090435745731        5.4280851381676740        10.067738887162744     
 H      8.4611274238314618        8.9543060649761745        6.6629708165631349     
 H      6.9259728699437959        3.1336634358438866        13.236381199748806     
 H      9.5841046971230259        5.6769958654790855        36.642687821153530     
 H      6.0184756720611130        8.0102854645441184        7.5253765456714321     
 H      4.5762110520553767        5.0914302135564489        21.624007097819945     
 H      9.1971810533697713        4.3846745825508204        1.1137021899292543     
 H      9.2363374528817506        4.7134969980492265        37.006127371990239     
 H      6.2957007911396907        4.8428169806734589        14.683712564076808     
 H      4.4438911745148442        9.2702680312269568        14.987294958471448     
 H      5.1071336791103104        6.2535967410093640        10.829522548610221     
 H      9.9928159172823072        6.5545084528190261       0.58040300250474375     
 H      9.6028196481100228        4.9834266791156390        14.517129784636321     
 H      4.9436829899377299        7.0347084336849610        24.614973240235496     
 H      6.4364857847880375        8.2652727972009998        33.692546257064215     
 H      3.1404855080865404        7.3592097394956175        34.219772250077824     
 H      4.1943075526087163        9.0432598799516839        30.278173037203512     
 H      5.2399402335663687        3.3308955116388503        6.6097266147495004     
 H      9.2687708551399819        8.5818349198557460        16.398675311858366     
 H      5.0179267488503578        3.3677738552274401       0.15852379076596251     
 H      7.0912274900183592        7.8676731662261989        38.872548339324688     
 H      9.2260545294909591        8.6059130444023229        18.436395807183626     
 H      6.5834939175353195        3.1865879149618830        32.015893006706122     
 H      4.3412944012826635        3.7474961649813934        36.108387051550331     
 H      7.1199936282860321        3.0927099422798272        28.399546814599240     
 H      6.2155532888688025        3.0824050740188955        36.554089736660792     
 H      6.8429038341350799        9.9218890658299497       0.15114009176071702     
 H      7.0699531254485919        5.1000440642076761        37.871570271087641     
 H      8.1538370001795624        9.2349683985520539        35.295449182785035     
 H      7.9458844568238760        9.4225541675778750        28.641498614543035     
 H      3.1862577006521442        6.1688638355524583        9.4463719357802383     
 H      9.9066834587919317        7.0796511870905823        14.088758592616472     
 H      3.8862887152884662        4.2307432499093638        38.121416560691067     
 H      4.7275063640042863        9.4638926095417446        5.7860889592660509     
 H      8.9085685907460181        4.1744576937609796        25.916528244015069     
 H      3.1804027337295211        7.5939205694534797        16.835626233796937     
 H      4.0347765556200876        8.9564213032384075        28.093738127397089     
 H      3.9183808865391643        8.8330141555492112        3.2739239065944226     
 H      6.6253953934078762        3.0202939031659572        38.737335527540935     
 H      9.4900473247792085        5.2561872999653234        4.3187246933961658     
 H      9.1393602121945001        4.2512445722218004        10.161773948604559     
 H      5.2112265624894460        7.8109174522685247        6.8934684931716115     
 H      8.6807838338423302        3.8487948656921254        12.551750407040219     
 H      5.4406078433479772        5.1833322636145347        39.114933680685574     
 H      6.9290075434106138        4.1914054774060139       0.34525418474396430     
 H      3.3170647665122592        7.6653807444901840        7.7184399050763872     
 H      9.8329234126660019        5.5693299505560283        12.561971807906616     
 H      4.9443005878369828        9.5796155963948131        39.209415913421871     
 H      7.8477079526051119        7.3001345650796594        30.709327014641861     
 H      5.7913643407033000        5.2051213525687832        30.947970928892570     
 H      7.3604881776765962        5.2750343365264651        11.271883884522147     
 H      9.4359051088298642        4.8343142747606507        8.2640303248434464     
 H      5.3734839810470945        3.2521321086986559        24.452588762643362     
 H      4.8496724240278883        3.5471637177824880        13.646426679970659     
 H      6.9549413360176926        9.9687020782087341        4.2629554764981261     
 H      6.6761321864805971        4.8373180224893098        18.852833481622245     
 H      7.8961734271888444        9.6700843420539613        4.0570990364414437     
 H      3.1110781554002123        5.7370759625156493        5.0530276741559703     
 H      3.2494238319109554        5.3730731309930722        33.613644124878753     
 H      3.9324074371052804        8.7699771998215343        5.4420392563224400     
 H      5.8263945125323442        5.8296157225517309        8.1236202959301824     
 H      3.3802807456220307        7.9299196114888497        3.4239402929935983     
 H      4.8868718206280573        9.5778135593738263        12.852943498959730     
 H      6.9011614965619925        6.0716044879088589        2.4193831204610494     
 H      7.8689594034698356        3.3446435271163817        17.558834783596129     
 H      9.7914529496398508        7.3556051261859636        29.511770228875239     
 H      3.3201237466877327        5.1807012644803292        9.3495358894357690     
 H      6.0927533967611112        8.2111712493155515        20.746045448168708     
 H      7.1662370415308025        9.9321011276843798        26.352345017101989     
 H      5.2493646965277190        7.1031909995942799        11.344547224527840     
 H      6.3494924444246932        8.0414133249773680        29.509534143868400     
 H      9.9512746954399507        6.7347842394713453        7.7865255890161853     
 H      6.0259225802037504        4.9777921074083276        7.4577437636311572     
 H      6.2524612118356711        9.9038426438563469        13.449042331623124     
 H      9.9463857400311309        6.0015617266910040        27.499442741443282     
 H      5.5187389898623262        9.8330665769621550        6.4625795786478815     
 H      4.6462427230916319        8.1451702807104951        28.168180764054870     
 H      4.2138624517752223        9.0070101116713293        23.455160851714776     
 H      4.8647626944204321        6.2003806028807888        1.7526762898356103     
 H      5.2351175979509543        7.7401941675763846        13.745655769407287     
 H      7.6624949112118657        5.2754288618197345        33.758652923103206     
 H      3.7227211464256467        4.6172592301408892        15.318008933614699     
 H      9.4734746985330585        8.2858289749344429        27.397301301348751     
 H      5.8248539570690392        9.7969931920384017        1.9506849224883622     
 H      8.7130915072392963        9.0306924338451715        4.5056292278079813     
 H      4.8355873888089231        6.5789801039630245        37.437489880178383     
 H      3.2743422529620791        5.2985073707541410        29.833386429046399     
 H      9.7599749862575269        5.8065388157127993        34.581725922941949     
 H      5.9604190646395860        8.1034023378698183        38.189796670425025     
 H      9.8518729139853409        6.1334400156207325        25.292821193374074     
 H      5.1703551273185182        6.0148264436604144        4.0698860126490564     
 H      4.8204810720782376        6.3348790801389452        26.584197129297532     
 H      7.8697645543899881        7.5807136338294931        8.3318980690712507     
 H      7.4436930258765441        7.9539972571131790        36.679290211158097     
 H      3.5122875874457060        8.2365172855412769        18.806649789180550     
 H      6.9124739918223286        3.0634331265733254        17.938980228624157     
 H      6.4144873651817615        9.9646862388942257        21.907744491051968     
 H      5.6816532062948077        5.1521105859493295        28.723778737480842     
 H      4.5789917275493179        9.2556207809544002        8.2372499605061424     
 H      4.4849044466302432        3.6428861178247152        33.807149588516189     
 H      5.0730228050973762        9.6122589009771904        37.105306255217911     
 H      6.5576034418293174        9.9565337048346141        17.808363567368431     
 H      3.1143803636938685        6.0889415456800675        23.127950544470171     
 H      7.0578348309429488        9.9392740118713387        36.875109029655995     
 H      4.1382115908110055        3.9321707990379635       0.15758695114072629     
