         461

 H      6.0458196546076284        8.9918507131617975        22.243453455864223     
 H      6.4057183895805245        7.9078615068208205        23.929667949623337     
 H      10.293700865837998        12.908268458266516        28.704875166479610     
 H      7.0628899634420472        8.7322768845834258        4.7588493916766756     
 H      10.869811711814222        6.2911793262969402        35.822719260042277     
 H      11.794121100442474        10.666616727507192        17.012646219346131     
 H      8.1404531643035831        7.3776286185048541        18.071521080000572     
 H      7.8270515262345031        12.572335258382651        13.318943225034186     
 H      12.958737288392511        9.3416570532418142        39.175602337041660     
 H      6.2474955214170445        8.3323828155651825        16.962553387285059     
 H      8.6367806541769312        6.2524125818932905        35.288489284834107     
 H      12.830405135155759        10.532505562813968        32.819909156818284     
 H      11.360058056222504        12.397220477293223        39.801468406658778     
 H      6.3527016452852569        8.0224699500571273        3.7382606761025681     
 H      6.5867318298727717        11.437139282338176        38.001777649110359     
 H      12.516831859787125        7.8464096564310193        26.516493736095541     
 H      11.549920917168889        12.336310576259011        22.426320990303346     
 H      10.210241150643546        6.0840145017856964        1.3983344976254783     
 H      9.4889220544080004        12.032620450247130        7.5108693533619642     
 H      9.3031839737226711        6.1386680405549523        31.319552599024266     
 H      6.0561667817487317        8.8943946994183651        4.6228799852763665     
 H      10.241273239868693        12.914169990394992        12.581350009375059     
 H      10.574224250930294        11.766164714615943        17.668648945637923     
 H      12.253561832115102        7.3618831535238725        36.951656651852304     
 H      6.0667623043646568        9.7006945577942574        10.359620488937662     
 H      12.965603112646800        9.9164821826899914        33.616412786593415     
 H      11.202598559636137        7.6093424077955749        25.496608141786190     
 H      12.478742313367858        11.318945851033108        4.6316848823005881     
 H      12.822707886142952        8.4605427985652426        3.2956601170587492     
 H      12.588266909554077        11.083160432670867        22.771711237610511     
 H      6.0261804581300460        9.8269410139966613        4.2480054271574890     
 H      11.174103938359321        12.487733693859765        12.199738223231581     
 H      10.884692199765031        12.711683013676447        35.710761479138803     
 H      8.0766776808122227        7.3693720374267961        11.688912220548278     
 H      9.9984312008586560        6.0463931907579802        19.410315135482165     
 H      11.754278629549551        9.0131335419950016        32.730600190815018     
 H      11.644569766491477        6.7741498410184278        36.395160008896752     
 H      10.530069772145049        12.787991895464200        8.0837069216415358     
 H      8.5405259522926169        12.022295207947359        36.438894564503109     
 H      9.9549252869050697        12.921211945018303        36.060103157553627     
 H      7.4300093739116848        7.8675719616435238        5.1707768895069659     
 H      6.8334246567087114        11.702731284986310        36.842077297186201     
 H      9.5982638926064254        6.0082258912419126       0.51156159747579322     
 H      6.7656145037495126        7.3579120591145841        10.734324982519960     
 H      11.340692397021671        12.416555276649605        17.244320830854768     
 H      8.6994070701810635        6.0956619565403889        17.619121166389416     
 H      6.1506212470631088        8.5785983366256566        15.669349744536072     
 H      12.886362780562383        10.280427884526375        15.617086914088993     
 H      7.2572710198282451        12.107665384766744        37.661428505860798     
 H      11.827500478063756        10.308233474965759        15.826131048588374     
 H      9.9053110737803394        12.974659641871224        7.3002279036731190     
 H      9.1197970751887141        12.950017003296667        6.5512368366560967     
 H      6.2205819573129135        8.2880420260548586        5.5612484964614746     
 H      9.4960754777362002        12.115969024753024        30.214556595192384     
 H      10.887781412114194        6.3103235060761023        8.6165386349301816     
 H      6.5078112987200569        11.235517769723568        31.348237625139298     
 H      7.7819080397447111        6.4556427369468636        6.0457271169418947     
 H      6.6949067803929898        11.557640141628136        25.582302671089472     
 H      6.0721153662063960        10.162074360327956        33.224526496147767     
 H      6.1199600272299355        10.264434994623326        28.475474696704886     
 H      7.4462213112284221        6.7782664247649071        39.997737546103671     
 H      7.5301459345580959        12.391413378648780        31.638328068520288     
 H      11.712802438003957        6.8174208954196844        26.394464540115823     
 H      12.804290862230971        10.450995194310801        21.905453744029074     
 H      6.1582190161336792        8.8207772940320073        26.850834207596950     
 H      12.264526492594014        11.596265385739239        17.051973545591512     
 H      8.2141703258756671        12.748964219701524        32.298108145060318     
 H      9.8276898344691990        6.9487058502677845        19.001980194062128     
 H      8.1121375606985282        6.3554154847820099        7.0246206827493642     
 H      7.2190118416555338        6.9237867121439596        6.7397954131560738     
 H      10.738547871792338        6.2319520490123859        32.377661549258264     
 H      9.4989263769102976        12.145795875310251        12.568126768083616     
 H      12.126848458588727        9.7809521917188267        21.578745746321097     
 H      8.2667238859324570        12.771446067840419        35.812293790171857     
 H      7.3804132877180102        12.264562628465699        20.253812276287420     
 H      12.971813056910239        9.3956153044588273        3.8486971470705598     
 H      7.1639195827608564        8.4715587937139958        11.090034141707246     
 H      11.630534091735226        10.977915706252952        5.3802989543571069     
 H      10.668794787359856        7.4390369618792258        31.452890969715334     
 H      9.4890540853368002        12.077183830339255        1.5069841577636831     
 H      12.704262538920206        10.852763090497628        33.986193742154079     
 H      11.569978267378046        10.812041303104852        34.020289386456795     
 H      9.0229369639373456        6.1380651295755388        7.4689919947002803     
 H      7.3395400310914578        6.8896206484823770        22.451524938484749     
 H      7.0906961531340746        6.9728808527811523        39.013512697353825     
 H      7.4956734763204365        12.310769165176499        36.311309247102244     
 H      9.4593668265436417        6.9211535766360690        1.3279081223229903     
 H      9.7479879857896083        6.0226510690655575        6.7647838688988227     
 H      12.247206265826238        11.655450944541725        21.964929591902127     
 H      12.301052042901404        7.4389807950234301        20.918295793698555     
 H      9.4834501616997358        12.019086919593692        18.806306342892469     
 H      11.391966217401075        12.398386057781250        28.411662217195744     
 H      9.7377963617370717        6.9730121037321267        7.1658678649534284     
 H      11.908771206233556        12.020079672424858        17.966253716247966     
 H      9.3666921721249707        12.993644091034225        17.939947054489696     
 H      11.196980738189046        6.4467356180757331        30.390474921026684     
 H      6.8911384679861696        7.1888799826105814        27.926799898539343     
 H      7.7575655440587061        10.689107281758783        32.312222222310773     
 H      6.0531203210660074        8.9453367403491040        9.5247694584813907     
 H      8.9469200487665823        12.951546888916482        36.539585684037611     
 H      11.932441216603841        12.015856981357642        5.2160838663206999     
 H      9.8639493343570894        12.951568126494163        23.433899806362156     
 H      11.687526870277724        6.7755493235100870        24.826675868615506     
 H      8.5610024511687559        12.863844236472010        12.577336035042787     
 H      9.5248082447197540        12.013634762438500        36.167405146589019     
 H      12.946854018229159        9.7515093051472306        28.864640620475537     
 H      10.135807826034908        12.921323300696312        6.1330875909298790     
 H      6.2184073397763031        10.063885696211070        9.3547393769032912     
 H      11.163065062990587        12.578299994859416        1.0587257348900754     
 H      6.9875484847953739        11.747092789426715        14.937595188230183     
 H      6.9007571496448676        9.7935790558956199        21.022908708700736     
 H      6.2527888505291429        8.2294601933058402       0.39127345092432031     
 H      11.905647146730852        6.9750556783259432        30.902751606749323     
 H      11.918259062180915        10.359593886906383        27.037657436626208     
 H      11.431743197762110        6.6500455561629739        7.8208513251121348     
 H      12.794734970110449        8.3614689399958131        9.9999209741187869     
 H      9.4440311344122723        12.998706721580545        30.792674389669745     
 H      11.110793590369440        6.4354816241506505        23.983002041882113     
 H      9.1958530287109959        12.961312900188981        35.339601876192731     
 H      7.3265170439912817        8.1405600369909941        16.826156815660120     
 H      12.987702784154022        9.4343191637115957        22.100266826339393     
 H      7.7694120900560852        6.5193777367892594        1.0231862942005174     
 H      7.4390128425484265        8.1270089934198992        34.301829303611626     
 H      12.988755793908345        9.7353084810406756        5.0832310907266978     
 H      7.6933473219395303        11.437877623849548        25.739964912943897     
 H      6.0655183707924261        9.3337070015273245        28.910146391211306     
 H      6.6385794501485949        7.4905974577748022        17.534231075948796     
 H      11.325242441032030        7.9313644001164167        9.3021901593384015     
 H      9.5589551527696610        12.929553384936598        24.750196509990026     
 H      9.1409629040012597        12.941468949914466        19.174972085102869     
 H      7.0611040944044543        11.971703282765517        3.7290842508080919     
 H      8.6882819093372525        11.920039932928802        13.148742944537226     
 H      9.1653720734980624        12.967442354741380        25.731426982987610     
 H      10.877626966222316        7.3883174672128247        2.0406280259460172     
 H      6.6677333265288992        7.5133304846908917        22.036388885839546     
 H      6.3147338765276668        10.623372076613995        16.581566782231363     
 H      7.0082419244327250        10.025806882972127        38.581288692519422     
 H      7.4851362420578829        6.6788248011380400        23.705567153536190     
 H      8.8179297559079703        12.851919087903200        30.019078838919015     
 H      8.2224887923019399        11.719696093474591        19.922522421887194     
 H      12.608230032484556        7.9595446308068230        20.008685405761124     
 H      9.8878227167961761        6.0833847488145318        8.0774974505507231     
 H      12.544512093576753        11.196763148780843        11.411720658449722     
 H      12.898357525970386        8.9658575755472061        9.1828504748559130     
 H      6.6651810101999276        7.6195515382616623        34.774413130872915     
 H      8.2840939004960052        6.2534307055389000        24.265557587537256     
 H      11.799676420876272        6.9625010471514805        2.3509055459294435     
 H      7.1344881896768317        10.376748281918923        15.614493599901131     
 H      6.2865830705682164        8.1455035454644378        22.740784849590852     
 H      11.704015656942618        6.7892824940806538        9.0390569638770746     
 H      10.032329798376265        6.0621180399727166        12.683681249160085     
 H      10.560805317319407        6.2363395611649217        24.813764691808714     
 H      8.0763713502892802        6.3450262085072611        22.942527567728597     
 H      11.191560510809344        6.4439100651226537        6.5840145638965737     
 H      9.8726990200092413        7.4222343090971892        36.115428932802615     
 H      10.122125500019056        6.0563311521283740        36.511386016598173     
 H      6.0223032578403357        9.3129501198112035        21.057247843194830     
 H      10.089648408845154        12.898423050289205        18.665558955322673     
 H      7.0985159460138902        12.034236470779883        26.421416883431863     
 H      6.1989939584151923        10.414885580593413        31.878636777061448     
 H      6.9761237556866167        10.000491918804522        3.9772354601189339     
 H      7.5866463726206135        8.0464306357501822        28.948373542488277     
 H      6.0324009702574681        9.9492437812079526        15.752009879648917     
 H      9.0283636277844241        6.2123356897607662        36.328909666237465     
 H      10.766950143395723        12.753092930624410        22.977246949094287     
 H      12.945901044120669        9.2323747477440961        10.486919563068700     
 H      11.211210412351990        11.489671234984559        34.677515394812836     
 H      11.428557194151360        7.7936117671010861        2.8076028154499193     
 H      6.0029740648216476        9.3645473818380172        14.901128318746590     
 H      10.400486873978620        6.1315524274075415        13.986708418346872     
 H      11.070457784385539        11.371716043860452        16.800930469708362     
 H      7.0985536209961886        11.995999561597174        24.477169315576919     
 H      11.027208957520973        7.3126362763720554        8.4801884234334004     
 H      6.4067330888426097        8.1294427925282857        38.738167479178315     
 H      7.3432979871397919        8.3022706362129259        39.675229170286286     
 H      8.2457451199328844        6.2925437483761151        11.755820537800536     
 H      6.0396225613625356        9.1140810018501224        3.5314107506417329     
 H      8.3721762442959733        7.6454488693823421       0.20862233397268201     
 H      8.8705849734465527        6.0825651343429668        1.2410943587047403     
 H      9.4493271341488789        12.992774404203624        11.959739728155036     
 H      9.5060687140773954        6.0604753341030646        2.1847050910492523     
 H      12.776739246867566        10.728587707316990        5.4213194824049085     
 H      10.561622314740140        12.825555811864819       0.28534643529690690     
 H      11.847779920183422        10.397318952067488        11.161887024149820     
 H      9.3335872357006480        12.995321941410301        2.1271094295125912     
 H      6.7267080401540600        11.529062413050148        8.0619403879476472     
 H      12.121724470855472        7.2218316219197547        19.511604228688881     
 H      10.310662825323211        12.902166916834428        1.5813378851904150     
 H      6.4885273904019174        11.188283144666785        9.2666536161931603     
 H      7.4018648253146244        8.2671361901440559        22.797724990399654     
 H      11.921642108508934        9.8341344807642965        27.951383454158425     
 H      12.596846683192393        11.094195318312151        27.262690582818081     
 H      6.3093185307885848        10.913283441939566        38.822110847009085     
 H      6.6047979319795580        11.364827481770527        3.0183404648818479     
 H      7.2945226736691664        8.1238487997782869        27.991712268802878     
 H      6.0156561158497217        9.3887691857861597        32.510479781851089     
 H      7.9061438618997570        12.573053038006215        24.220667252341190     
 H      6.2463791913785487        10.597240997316558        8.3254336912142950     
 H      7.1214900173704203        12.049732605035032        13.818452294229555     
 H      6.7488580454710707        7.3622179786479256        5.8882496200093808     
 H      12.366536027944484        11.458534308209432        6.0104682805761431     
 H      11.683108615057005        10.360438386552467        22.268741903866786     
 H      11.285295073994062        6.5570116949483754        3.1089331273901988     
 H      12.918491574641727        10.143464463693489        26.930150604745076     
 H      11.732207494326440        12.194191540517959        6.4318687872312914     
 H      7.1252935475341364        6.9365174868629431        29.094121744651016     
 H      10.559160490377486        12.832244906759932        16.584565693775939     
 H      7.0528299551231202        9.9604644216051774        27.370717810950826     
 H      6.5440425848207626        7.7907071471057909        28.870951658873274     
 H      7.9860953747851244        12.604918537374811        37.146790532176070     
 H      6.8406341197047755        7.2606587129023623       0.76236313579855408     
 H      11.841471537571419        12.089732324230120        33.872779088220383     
 H      7.4587928206415102        6.6576790484310200        11.252721818129476     
 H      9.6483447813034076        6.0068664866979038        18.082824117714615     
 H      10.257266857927862        7.1978711533408157        30.532143090561139     
 H      8.4835348060404119        6.1924497400216172        13.054368272134710     
 H      12.692765935127387        10.878307836910452        10.113566552170212     
 H      7.8543590414633249        6.4297137298243046        17.144573615343237     
 H      7.1365080318061533        7.1111015880964326        34.028763638449377     
 H      8.2504065749858064        7.3272652515868391        22.792604170688779     
 H      6.8372497417885612        9.3014961407681227        15.567090247737816     
 H      10.723713084199989        8.0293637023911124        36.962181832758262     
 H      6.2655720919417925        8.3417443559818949        21.481756214689213     
 H      10.513231733750287        12.799053087010130        11.414315634587407     
 H      8.1709587572111229        12.727350125647289        19.813977475624377     
 H      12.467400303917822        7.6524488415908785        2.8104690011868807     
 H      7.8099547416146029        6.4351779000610962        29.647415182415081     
 H      6.9442680787503868        9.2136638514370386        39.162214284733601     
 H      8.2898517321992387        11.736038390190487        2.3865386479240964     
 H      10.012673207917647        7.0565838735879538        24.333392352228664     
 H      6.0918191610870567        8.7278065286830024        10.927195222987420     
 H      12.330703568421923        7.4691407973574568        9.5234261483907456     
 H      12.389244289071662        7.6314734987524462        38.104276893797341     
 H      9.8686528135589207        6.0212080664586534        30.451625250619752     
 H      6.4784811985644675        7.9304577189903238        33.723952314726731     
 H      7.0398115295197714        7.0117006257311436        16.726913061243376     
 H      8.0128082438937316        11.567496172802747        37.171318509366863     
 H      12.850379338955419        9.5022843308721239        27.707988581076478     
 H      12.310158410531013        7.6013407151392283        14.085573098996047     
 H      6.5026480978383887        11.196713666198987        14.144430695715485     
 H      8.9607176916715030        12.954964483942062        23.932138555978710     
 H      12.143076731945277        7.2671884716874002        32.157474898874703     
 H      12.011067121150260        11.707367173938142        39.431057484582695     
 H      9.3091486921276676        6.1613190140982965        29.558269383427326     
 H      10.574736550707660        6.1888639530031124        18.582690118378704     
 H      11.041249755407160        6.3605993054137118        37.296241346528106     
 H      8.8369291297684285        6.1396208823246647        6.3043284837432259     
 H      11.880462901234623        12.049981560919601        16.217350573177853     
 H      12.818494421417292        8.4238557773515126        38.640917551104479     
 H      7.5020123255722391        6.6418959742326242        35.034810656380934     
 H      9.1034090787170641        6.0238893385257626        12.232489270715593     
 H      8.0784692026647775        6.3332183133282198        18.418524410949409     
 H      12.926922461540782        8.7951065119764795        15.770257213574126     
 H      11.110845794516965        12.505166985620599        18.438628087710676     
 H      12.005245187034818        9.9710783553047246        38.926935377105210     
 H      8.1615573950145350        6.2785023336628054        34.349917941349446     
 H      6.9797761745977844        11.911173992212346        2.1313601021658228     
 H      11.945493785846990        8.7685464690768526        20.600884223652294     
 H      9.9997081816369082        6.0366841324660658        23.928549177204399     
 H      10.227972049272051        12.905501589276440        34.979794844183218     
 H      10.574893813576963        12.825841374129288        30.416930342310671     
 H      12.916164283180940        10.035794536110975        6.1987418280649260     
 H      11.933816563418727        7.0637290860792366        14.892237330791939     
 H      6.5119845172317730        7.7054455579509042        4.7528763107702234     
 H      6.1256858452464753        10.427991147308170        27.146619304262334     
 H      6.0413637003866203        9.1057529548613960        38.478441872895552     
 H      10.596468394295709        6.2274094243060860        31.172795893091418     
 H      11.113983275312497        6.4725335508892483        25.663774816945846     
 H      7.1939350956374950        9.9718387477947203        32.822783833869877     
 H      12.855289545120593        10.465938396272003        4.2226990888836902     
 H      6.1373235055497650        8.7201397656459179        39.510882753663715     
 H      10.266323682523359        7.1072310674714343        13.294801658997351     
 H      12.038576379827397        11.865390160722889        27.826519507598245     
 H      7.0471539639331588        11.962414188548435        30.865753218782881     
 H      11.949874495855662        8.9588879763536955        9.9431382784773952     
 H      7.6332927494718348        12.382529988642339        7.8352611150676728     
 H      10.471088510612331        6.1526809041988040        2.5561859065715735     
 H      10.909081503178125        6.3090728843744834        19.949776902677058     
 H      6.1019510685533973        10.255663392847183        38.093067248457999     
 H      6.9387399548826094        7.1218915394188391        35.709918704299838     
 H      12.041486644136794        10.218405270042565        33.367063720783847     
 H      9.4031795811009715        6.0457812779938864        13.469629971241440     
 H      6.1598633727628087        10.434851029151025        3.2480355524975830     
 H      12.000683657862361        7.0587212123075016        3.6222815153813381     
 H      11.804238215269718        6.8749694721828947        13.601128224669818     
 H      9.1250319860591276        11.433603155635415        30.853332488058985     
 H      6.3857831147557444        11.085017377096623        21.455079424847099     
 H      6.0193981522928999        9.1921739419418920        16.478099883573272     
 H      6.3791824206973491        7.9560152752999018        27.350077263629231     
 H      6.8463337302420397        7.2556188518910520        33.072811783643040     
 H      8.7635073974575377        12.891166450717598        7.7157355482566903     
 H      11.988772424779400        8.8641815074983583        37.770142036887997     
 H      11.922640943333953        8.6273019292874675        15.554617303424600     
 H      10.777164574513270        6.2636832709132593       0.57255561405457922     
 H      10.448396537601079        12.867537432211259        24.282293037814821     
 H      7.7875413602506489        12.307331986553432        14.554568861344455     
 H      8.1555829740344077        12.716685479285237        26.030391583735547     
 H      12.506156166625701        11.291876018156865        28.619811925925504     
 H      10.466180126337528        6.1550626625763289        26.440111626473602     
 H      8.5487471188146724        12.842484036324821        31.308999311868870     
 H      9.8677590308097152        12.958855107431205        29.711593417295457     
 H      7.3139674792258589        6.8206208333282508        17.929943166387464     
 H      12.730793450278185        10.772741391298485        26.143724160877564     
 H      12.068360131019057        9.0851785502881022        3.5385918361097786     
 H      12.527373886995049        7.7662435056491637        31.351793371022303     
 H      6.9069917441028164        11.785166529316612        32.147490585680835     
 H      12.771386856992820        8.3818524939743870        21.301777747526508     
 H      12.984340624183535        9.2324269637487895        37.869795189998904     
 H      10.965396355743140        6.3546581012524621        13.188223500261563     
 H      11.915280801495779        12.030519013761912        29.208546185979994     
 H      9.2159060325280944        7.0630298669416938        12.823106217447569     
 H      7.7395371814125911        12.485406041968417        1.6970008828364813     
 H      7.2934166308617066        6.8870388368679674        5.0167955276417651     
 H      9.0491305772581825        6.0678902554147056        18.910420280608395     
 H      10.723744627604040        11.634481727282333        6.6101754195532338     
 H      6.3119417506021582        8.4620230264756522        32.812441256641037     
 H      11.563605982710310        7.8940969401000114        20.259624655156802     
 H      7.5185013613962255        12.341551499095225        25.319709945450452     
 H      8.2441492226345510        12.762448335568164        8.5839784270815755     
 H      6.0213458290491992        9.4087653022476339        27.650963049287640     
 H      6.6480077121055849        7.4986957878418625        39.742300533093768     
 H      10.799218756641894        12.599226095563314        6.9299428357994071     
 H      6.0132888085966911        9.7933097087424112        39.279786686809601     
 H      8.5178356711604639        6.1540648984055766        28.878467877179379     
 H      11.395834215328540        6.6142240374085874        19.103411312851701     
 H      10.372555867274695        12.869801183126500        17.659793236867003     
 H      10.633007628875211        6.1978081159886180        15.118912177448935     
 H      12.137189428402314        9.8629803284721511        10.355674614406997     
 H      7.5165612823715158        12.327199763348908        2.8670308265281310     
 H      8.6267255043440407        6.1224305905665499        30.344391422527632     
 H      7.9880261431180832        12.465390290596662        30.551677499066219     
 H      10.606223997221907        6.1794227471161207        7.3858937740064237     
 H      7.6829291903385233        6.5417532955263429        28.327796600377155     
 H      12.810711426675647        10.555291122008587        16.741659756353936     
 H      12.897847883021974        8.9480432802098040        33.194549008754130     
 H      12.539575957472724        7.9167290396613712        4.1297711654120492     
 H      8.8967327658330024        7.0389788163169271        18.643652908680384     
 H      12.184526292542287        7.2594185404170064        25.624362515616212     
 H      6.1303336502975139        10.393004004654381        14.716116398361626     
 H      11.910191257230695        12.027766912234853       0.63920258544622865     
 H      6.2544164252206755        10.747768738239163        26.112564908919687     
 H      8.4994672181170952        12.834373037442621        24.989451172426815     
 H      8.0140420787624986        12.668079197431515        3.7880160800233660     
 H      11.649374777398304        12.181323279574611        35.255123957192950     
 H      11.374656768592217        12.343783666051939        11.098201346961019     
 H      6.3713139984201819        11.024819875928145        32.686963601705870     
 H      12.679945196733115        10.940478009130624        38.970764063873787     
 H      7.5946371539079580        12.407896246113097        19.032315516621065     
 H      12.845220908680409        10.485361431740143        28.061163923966046     
 H      12.882294573711468        10.369265184388100        10.960358450625865     
 H      9.9441641624422505        6.0744946906816351        25.589427929107366     
 H      12.694687505758855        8.1972135132026445        37.291094840171588     
 H      8.0029524945010788        7.6445645353539105        34.980892619496856     
 H      7.6326495923985656        6.6061546886586768        12.489026669784728     
 H      11.838153690654980        10.870602312577821        27.945153111905633     
 H      8.3654154000268175        12.741141667145509        2.4514788713393276     
 H      7.1426595041695355        9.9054062517141119        10.004655663828689     
 H      11.448086952204211        11.117495612887524        28.882512056914134     
 H      7.2248327985406355        12.070830272630163        8.7623807147598676     
 H      8.4177377938139131        11.776804512432197        25.108395298221463     
 H      6.5464794592835531        7.7362142257031836        16.215085202787961     
 H      11.397546785674230        11.143174698801367        11.687278488338848     
 H      11.380389684030565        6.6348183570177897        31.689195575320063     
 H      6.2328368685021678        10.685241935514744        10.145670070169148     
 H      8.0955731802468236        7.3576950341225320        5.7209004773793506     
 H      7.3805197263749696        10.343179544848534        9.0721143594231624     
 H      12.972214263424155        9.6477429940209500        32.367857633951544     
 H      6.3245143755056779        10.966458146213933        15.514869801738795     
 H      11.378532680378491        11.305895508570288        22.390786871338008     
 H      10.810458924008636        11.676172041121765       0.61965135877254596     
 H      7.6705123405121380        11.175858373803466        13.995459319266503     
 H      12.159871329708428        7.3349019512060449        8.2909894195979010     
 H      12.948311079769368        10.079609265080874        22.868900137958981     
 H      6.3446282444682049        10.903796250612382        19.684517639242472     
 H      6.7701397954799756        7.3270565802159204        23.149223346248984     
 H      12.689375942249740        10.936502352419168        21.019874307066932     
 H      6.8884793000950744        11.819294910323377        19.475992928187210     
 H      12.239580333230599        11.585235174046568        34.691941556677577     
 H      9.3704753477064529        12.984273104464920        13.187357426225905     
 H      11.265852489673284        6.5116364818619754        14.371449807660268     
 H      9.8846669368552220        6.0479410476380924        35.387786949321416     
 H      12.565715252465303        8.0972145425800175        32.617810749700311     
 H      8.2845719898223198        6.2187223279143566        5.2063509199762574     
 H      6.5515607591539489        11.333681362462562        26.890081905161807     
 H      11.052081335369365        12.633353173128894        29.458224926386656     
 H      12.899662128023177        8.7302632135124547        4.5986526859503405     
 H      6.3023776780256178        8.0780073306893883        10.193324882455055     
 H      12.043881687005426        11.846784683882600        23.175606519718404     
 H      10.575221671166810        11.803738550123672        35.397768383160866     
 H      8.9630210283883862        6.1579062269744362        23.518915000411681     
 H      9.3122614089437388        6.0403361568975829        24.684019218490601     
 H      9.5654666976592324        11.980314558974614        23.968156818287394     
 H      11.750153234213521        6.9277144172358236        37.721409597783087     
 H      11.708182232316398        6.8203524959004840        20.354817193499837     
 H      11.010860268067264        11.595529030934973        23.308859360472624     
 H      8.3757682803979598        11.857214935181524        31.384058156782558     
 H      6.6742526518546406        11.497510008788799        20.504198884971704     
 H      6.0551958713188991        9.9571702375585591        21.824081462454423     
 H      12.957204984857750        9.2941024421677838        26.334051429897688     
 H      12.784329762009214        8.4329305609090248        14.587011725131735     
 H      8.3657206626396921        6.1983542394326481       0.28695003908638944     
 H      8.1084206742956404        12.708617248554388        6.8928017784081366     
 H      12.929675981309858        10.076844346419366        38.420468168904527     
 H      12.980854083255137        9.8564266265652520        9.6529996051232345     
 H      6.0092883045152279        9.5892707195224780        5.3779423315608534     
 H      12.023867722133483        11.899386699261779        11.921081108322362     
 H      12.535837230413277        11.232237325679062        15.870330889247958     
 H      12.432935950649643        11.393366037639993        33.169289395175234     
 H      11.377767088883624        11.091206726006144        39.908879807043299     
 H      9.2410103256825202        6.9154864182090208        30.419714282460113     
 H      9.4950802919466195        12.926747940083205        8.5387460886011883     
 H      12.958831045808617        8.9906390210378451        20.488573298537915     
 H      12.533057686189910        11.145077229530330       0.12873265288815480     
 H      10.318361547324210        7.0908826791868833        25.311045713092057     
 H      12.986673611322697        9.5700955172317741        11.660345862839550     
 H      7.0234750667597057        7.0443088669838785        18.866014448631123     
 H      10.984984735560316        7.4968370051837629        19.462863639637430     
 H      12.973767926496135        9.6045185649947715        16.355797750624909     
 H      12.663650002927076        8.0965598048284466        8.7443002184252681     
 H      12.106545485309391        9.1985206857834179        27.100456450337706     
 H      6.0293839002579439        9.1480763663236058        33.620980437180457     
 H      12.006903380671357        10.060192677243377        5.0481671565133333     
 H      12.986596718392786        9.4777087542817018        15.023636821080794     
 H      7.4262773926085810        10.651300494352418        20.724131926478165     
 H      6.1457318912751813        8.5262584969065998        28.169334860694047     
 H      11.117607928302693        12.592475385260762        34.512941716426056     
 H      12.847417270154466        8.4813417083465712        27.301942549479971     
 H      8.5264500959615983        11.754568793629527        7.8142534894123150     
 H      10.423564176777349        11.829497231954695        12.320304323709976     
 H      6.7950716524514663        8.9687229631281209        10.215888442742150     
 H      8.6988866744721722        12.906811491850645        1.3579700174560658     
 H      12.858429097463818        10.239847971548386        39.675420659966768     
 H      6.1914149569583765        10.539208314154962        20.637730441771168     
 H      12.498877467655191        7.7925254766368521        15.329649912970375     
 H      10.530822344799756        6.1972979729394231        29.656691656338296     
 H      6.4183624621214346        11.074263320693440        4.0987419904092794     
 H      11.711290063299844        8.2022994713619877        37.049813741202499     
 H      6.0364441923766465        9.7684863952468532        26.400182355362531     
 H      6.0233552169143367        9.3778768524327329        8.6160969874093514     
 H      12.440567962886837        11.396802847871019        1.2928047067401498     
 H      6.4039289851972461        7.9076223672891226        11.587532350551536     
 H      6.2930461035802070        10.789379183444831        37.264566999757335     
 H      6.9294515335587965        7.1261253985872361        11.994458478554231     
 H      6.9866140638184628        8.7945254130685981        33.640023123894082     
 H      8.5416622732155858        12.857981734904037        13.978580761518288     
 H      12.172091925328358        11.686940646496065        10.576633399369163     
 H      11.599570927312239        8.1160074335461925        32.315636767774052     
 H      10.038841139146600        7.0831517945374323        8.2114022944584200     
 H      11.067147382701044        12.508179562265399        5.7014764145864794     
 H      7.5944911591859308        11.340032160817428        3.1662537269287925     
 H      10.913074235832685        7.5858273661599762        14.561125998824672     
 H      10.661320098877495        6.9961024791897355        36.575991570376310     
 H      12.878700710376672        8.7288335554183956        31.772294162501630     
 H      7.2877475253457069        10.897454067541018        37.506289649358607     
 H      11.105681285192777        6.4470799307273463        1.7853349653205561     
 H      9.6390990753481702        12.985357285112105       0.79690155559138232     
 H      7.3590225413662802        10.413994972862833        14.623551897564473     
 H      8.0587262670569491        6.6406889394854414        36.041358701246565     
 H      6.1731305735492876        8.5395936104450332        34.456651795839505     
 H      8.6157923073113576        7.1211247665370028        23.771369826435301     
 H      6.9916372401300269        9.0705329822288157        27.865728929550734     
