          78

 H      8.6810263234281759        10.817193040548311        20.894469559987339     
 H      10.334214158355676        9.5600505629617896        26.313126635844583     
 H      6.7376587469195615        6.7331317295208875        18.581262180526579     
 H      6.8641982146847749        6.6662645991751264        19.751079550740130     
 H      7.1136498632753389        7.4628646403392516        19.166912260314362     
 H      6.5018345943990790        9.8085046291373708        3.2809328765893411     
 H      6.2323976494723050        7.5026477532347835        23.663060972988234     
 H      10.940549921623118        8.6241896540698395        32.538225699056113     
 H      9.9458914364375328        6.5296315654396659        6.5362904744464903     
 H      10.648578104022103        7.4321987648612140        16.634832902601801     
 H      8.6149114582687414        10.771888482509208        35.012092935896590     
 H      10.619528202061506        9.7483224385789491        12.358483411162025     
 H      7.1128141206609472        10.524345334259895        16.516493207558820     
 H      6.9018915359804804        9.9979538780579809        15.192673823430267     
 H      10.217507989845988        7.7021216583415670        1.6916500224908708     
 H      6.2769432739462978        7.5997749347710553        34.170026039603378     
 H      10.829246495362190        8.9670310316281014        11.603465625185162     
 H      10.359504005560485        6.8784423424919270        36.253150271435878     
 H      6.4996540059006822        9.2788005978921202        38.254631980355967     
 H      10.873406438231026        8.8497658538413013        21.435780013183280     
 H      9.1772830944111767        6.2357165941360959        15.233481574759436     
 H      10.972768010649636        8.4192784784705026        1.7738134845550337     
 H      10.494902870693698        9.6750949234394703        10.852601033584410     
 H      7.2634235970652155        10.045986624403351        7.6315993567120248     
 H      10.932470219278189        8.3420112534360165        5.8666437564717810     
 H      7.4620044073503449        6.2339325720835461        11.522959899387871     
 H      8.7920967979563773        6.1812528130203264        6.5428407649357672     
 H      7.9677788549833668        6.4147186347973024        19.610725510589727     
 H      6.5193244862362576        7.5754191187573898        28.115584000029131     
 H      8.1667150729963591        10.904726086144889        7.8096241429234858     
 H      7.7139049329024099        10.872402358233675        30.042771506205398     
 H      8.2313722259492081        10.955502797971414        39.464593952235710     
 H      6.8290777180120683        6.6798209351279230        28.983061015683468     
 H      6.4039985548065772        9.5919591015089516        7.2899801245630593     
 H      9.9483685596957638        9.8938962712054206        21.042338807898521     
 H      7.1556021991463847        10.543393500525520        3.4779866511164372     
 H      6.1064888699209847        8.9282137789490292        39.157818702459423     
 H      6.9867319548927389        6.9176590967099498        33.794825638016619     
 H      9.1086096465447781        10.851190406389714        26.036277693351622     
 H      6.2605348279706758        7.8298863531985683        19.572756264933062     
 H      10.905625936070162        8.3454666937090671        16.190217411200550     
 H      7.0860812955933383        10.485594783048001        30.806127992672042     
 H      9.9986087474110512        6.5828511204835340        14.773435398350561     
 H      9.4855211951130460        10.750138565372625        35.644186480840879     
 H      6.5086160680392640        7.1333893446001042        10.911596446645355     
 H      8.1107001083998487        6.0566361557658777        10.653889130155687     
 H      6.4269600677982490        7.2005438551765737        32.996222871610470     
 H      7.5059933572373811        6.8623632071744600        10.697076703774313     
 H      8.9576555189980045        6.1106245305606164        1.8756442751586813     
 H      8.2242400932408231        10.919765598672276        3.5615093173061267     
 H      9.9315596439129568        6.7316637886759105        1.7576941452713266     
 H      10.953739075554912        8.5013248348316814        30.531086977404598     
 H      6.2332830722169366        8.8115362793640681        3.2154998983726202     
 H      6.7798817688550459        10.247637304978781        38.756312783790833     
 H      9.2235779347733580        6.1821572195776682        37.784516860855071     
 H      10.960570986786999        8.6565486872548849        25.788879684642236     
 H      9.7034909113079841        10.672682868610492        20.311674901407788     
 H      6.6062136358248127        9.5162358351720240        14.230095559325147     
 H      10.943833428778293        9.0154444781115046        10.038595349823190     
 H      9.9063407619053141        6.7678024657730678        15.873671114660992     
 H      7.3772421940133608        7.1921067799443303        27.762711189658965     
 H      9.8924387064478694        10.350839814372268        11.875874307178316     
 H      6.3564392182968881        9.0991102602967722        15.282192799790739     
 H      10.191532586248609        10.319646362993058        25.450838730348860     
 H      8.1367592139423284        6.2065156274509992        27.763962023587208     
 H      7.4084654651930348        6.3783885472516193        23.832463526573161     
 H      6.3357125111503851        8.4687971836416178        23.949742347984301     
 H      7.6279144255024054        10.588165526637230        15.550339898525605     
 H      8.4157125152761338        6.1674522194574637        23.696002401617157     
 H      7.9640926954943509        6.3842601225268014        28.755779876728216     
 H      10.889967878540949        8.9319436641781600        31.539862322135470     
 H      10.499286777954612        7.3924241968662336        37.642540915421556     
 H      9.8997676890924122        6.5325083559458719        37.116168869914034     
 H      7.1555979680411674        10.474745000374757        8.6033285289485928     
 H      7.5534048389030701        6.2713218260142440        33.278962085781323     
 H      10.702325721181877        7.3490689366017996        6.3534199456816793     
 H      10.783959288170832        9.2577230597070947        20.296143761424666     
 H      7.7315479066279345        7.6053368291579249        23.649867778921507     
