          87

 H      7.0159039229098488        7.9939681780508787        17.499920589589500     
 H      7.0201101465468190        7.0225840350485749        31.804526514924458     
 H      7.0497825813432407        7.9949954093487010        27.284238823153906     
 H      7.2659971192447363        7.9495565509778494        16.460735418481878     
 H      7.9233091295995530        7.2324389495171868        24.620510330293698     
 H      7.3229168401677081        6.0971019425116300       0.67377610746602468     
 H      7.1122246708877572        7.9533516977809091        29.154101516363916     
 H      7.0739616851038853        7.0065687300951929        10.446530832493082     
 H      7.1560446702977512        7.9663906290735103        30.430904641870946     
 H      7.9365047058726779        7.3316389331392875        18.930021840668196     
 H      7.6706618811957759        7.5407802042961887        33.784138225828045     
 H      6.9861103351488030        7.0884080145752639        6.1242842219810676     
 H      6.5369854786585249        7.8463936345494814        5.5613136188197636     
 H      7.9664426523208007        7.0086770470176871        11.929051585924283     
 H      7.0713908572995070        7.0346544369651225        33.112465499898555     
 H      7.9644521710214518        7.2528539442689226        29.158087147220126     
 H      7.8374002368089553        7.1177813663538743        23.460084720510764     
 H      7.9454874745483703        7.1767331618397172        14.377539933820938     
 H      7.4034060310846073        7.8875530640713043        15.445883466588757     
 H      7.8957554470512035        7.4110830900445945        25.795353601190822     
 H      7.1650613070233709        7.9834281470145250        24.662211086118067     
 H      7.0528216509993218        7.0045939213581558        20.696166788734089     
 H      7.9960677333396557        7.0034225424517507        10.055745911969513     
 H      7.0888017611112293        7.9939166750826507        21.596251586339413     
 H      7.0069500470428734        7.0096000474671030        17.260502652522806     
 H      7.7641320072656166        7.6393362581294184        27.894907475721702     
 H      7.0469275073564885        7.9803067137923271        34.547299816907810     
 H      7.8761823063806480        7.4144566470155908        10.968957102209906     
 H      7.9122726819281324        7.3273282136083759        21.354011577437984     
 H      7.0080546429919153        7.9757716473481990        35.701751226875025     
 H      6.5853693850485193        6.1348578260208280        5.5210676928017302     
 H      7.7962352182912333        7.5393076944760731        22.394749551134428     
 H      6.0019808054386630        7.0041066877638851        5.3495297219962268     
 H      7.0310474701172190        7.0927466991800090        29.770903357420895     
 H      7.0133905748306375        7.9777134467412631        25.681355870773604     
 H      7.0734519450270055        7.9054493668547483        37.037796557095021     
 H      7.0149535570011121        7.9633055137823705        1.5446737974338143     
 H      7.8996609157184920        7.0225541713970827        32.550883672272157     
 H      7.9413011084736187        7.2349911819986259        16.652358745594569     
 H      7.1070225061772909        7.9899029674130633        23.234961042297567     
 H      7.0393659377110058        7.9707300981748670        39.758545983311137     
 H      7.0693249261944109        7.5811833370744441        38.716174509080552     
 H      6.9770932631791949        7.0800604037973338        5.0782192982305068     
 H      7.0544897429290252        7.9900463580719121        20.520085445729862     
 H      7.9338614200322386        7.3510690279552771        30.287117824909160     
 H      7.0341224253444059        7.0624455309993763        11.457866155937571     
 H      7.9154844058494973        7.2363083631493241        1.8049264966323757     
 H      7.3928516064548235        7.9024392675806112        13.362682472047895     
 H      6.6024601493828046        7.9033536010067102        6.5663713612697894     
 H      7.0091897645012047        7.9581475552608207        18.862135797034139     
 H      7.0098085040578022        7.0640887721363885        25.245838384881083     
 H      7.1655862864971906        7.9653301231223406        31.444646961000817     
 H      7.0136758849177276        7.0217972828778787        19.342156320896468     
 H      7.1474981197793088        7.0077101287219135        28.547629972759740     
 H      7.0171931297200585        7.0542363530523859        18.274172018767153     
 H      7.0198381917430224        7.0033552254785807        4.7442692548697304E-002
 H      7.8995785805200507        7.0079697764684772        15.418066254981115     
 H      7.0175367351820706        7.9176067769902643        11.993019754372050     
 H      6.0602774737145904        7.1426784118913877        4.3560061581951803     
 H      6.0108253933258835        7.0921454424371362        6.3515108774338263     
 H      7.4654283738702238        7.8776106225201161        10.058648941448661     
 H      7.9849273273334092        7.0938328117520371        38.696637921286374     
 H      7.4821007780045710        7.8720816521521684       0.65368580728101922     
 H      7.9867259922297142        7.1268860579092239        36.737440678777510     
 H      7.1673752516297222        7.0006909619665993        9.4320762805708664     
 H      7.0008012076211497        7.0017038650950774        34.310206436617811     
 H      7.0135956815875202        7.0510986167150751        14.897752851501000     
 H      7.9891067270236888        7.0011968968935019        31.441505208547476     
 H      7.0013145224278741        7.0126470331948729        1.0497632214022770     
 H      7.0043486737641443        7.0240822011548945        35.364080635438363     
 H      6.7741062518669857        7.9677162013249543        4.5919841461146556     
 H      7.0058983717837702        7.0059080170373136        36.516491735483363     
 H      7.9073705367934579        7.3497093780855094        39.702375612139605     
 H      7.0459698148515599        7.1976555760543839        26.357823192678456     
 H      7.9998768317690718        7.0098644664949044        27.080591958808920     
 H      7.9455029131801087        7.0516676386382180        34.662253220445777     
 H      7.9836100085285393        7.1089270738152930        35.686561619464065     
 H      7.9967600116503306        7.0104813899637337       0.82941705606084215     
 H      7.1024391541795344        7.9524651406888323        14.353096555164877     
 H      7.0102462518971116        7.0103277466847720        21.790874566818541     
 H      7.1423819110767885        7.0630327835279099        12.515944460508623     
 H      7.0212998072451969        7.9863996191476438        10.961222050127398     
 H      7.0418279311033345        7.0048310216357956        27.454188057695962     
 H      7.1621896605771482        7.8429982160709670        32.527376614200463     
 H      7.0500893490304284        7.0162276404039989        22.835536058863688     
 H      7.0297948596265174        7.0636566753044354        15.936191312913341     
 H      7.8799806630276414        7.2393043455400630        17.703505531872690     
