          62

 H      7.2401623042711440        6.0737268725463016        20.460437538460692     
 H      7.6134992777152375        6.7692195780996416        2.0123812520405759     
 H      7.0381532618434814        6.0479836195688659        24.702191186457085     
 H      7.0452234293033049        6.1609900587028790        29.791859295487935     
 H      7.0042342720824866        6.0069363551446697        19.490804434115081     
 H      7.3200292225356165        6.0568616037777865        33.843397473296513     
 H      7.1101309029610409        6.4245777547407350        32.885751377783087     
 H      7.9078447993110874        6.7257024664094001        28.645869238176957     
 H      7.0596101754758136        6.0062562279369640        15.461151347228759     
 H      7.4554500650632587        6.8039143409792153        27.685736265235938     
 H      7.9462648568147651        6.9552732149159509        32.671330541625231     
 H      7.7758828198214989        6.7949225479611028        24.596719968157988     
 H      7.9130097753554045        6.9341087767299125        10.116008712382538     
 H      7.8875389226268000        6.6323912909512410        16.357978870170953     
 H      7.2932511012043122        6.0971239491562121        17.525910194342224     
 H      7.0134418590220049        6.8558095036575359        3.2548541665662163     
 H      7.0712660350335357        6.1232108963655669        28.767743151070093     
 H      7.0354759107135942        6.9645766007482841        10.649823058745568     
 H      7.5717077308376481        6.8754872924458388        38.896300448806258     
 H      7.7792203264054551        6.8900803682110956        8.3159865488686027     
 H      7.0343441805417095        6.9832119677684492        25.518861451280721     
 H      7.9222062068382266        6.9819535122059229        39.882137206817710     
 H      7.1001645798328044        6.0137882181001068        34.890126493019835     
 H      7.9589133956052454        6.9458766960708838        23.612545119634081     
 H      7.2143391718134904        6.5128945795298101        9.2159907958654603     
 H      7.0689085769254092        6.0214809647083793        11.217581334779174     
 H      7.0268754765472297        6.3226539148002239        37.938076784216740     
 H      7.9400311800062120        6.9645988135551651        37.953437947103829     
 H      7.0166720541405763        6.0012983711211723        25.766303885853649     
 H      7.0837259658069636        6.0630223304206314        5.0213728124466206     
 H      7.1674086355744171        6.0728541272537688        21.533979123574838     
 H      7.1195227948816528        6.0096081380955049        3.9824739226818147     
 H      7.0315269436278118        6.0032571910200145        30.795258613281877     
 H      7.2620750632574884        6.6045328994690990        1.0471228451721386     
 H      7.0733775574849025        6.3240083467687640        35.880186979130265     
 H      7.0051268772429403        6.0074145032613417        39.020260931986641     
 H      7.0013715651647361        6.9927759248395089        4.3665511512419304     
 H      7.8636130781239562        6.6015881798289326        19.450885793457051     
 H      7.1967183583798748        6.9919502047465318        30.682300721531416     
 H      7.0030063414007540        6.0788610395935514        16.461977002895342     
 H      7.6197334987581460        6.2938790266499876        14.631296192059450     
 H      7.0814258425372500        6.0405308246680258        12.364431799304256     
 H      7.7503250052747497        6.9577051465762878        34.861522723026653     
 H      7.0078932200096906        6.4244183196270015        23.609398443201673     
 H      7.0536611020893192        6.4649019170583930        31.822923686106911     
 H      7.7641500085024253        6.9887723602157923        17.568640436605953     
 H      7.0142672431013198        6.9820169451246734        15.110114860540225     
 H      7.2107195563798099        6.0817093035417349        10.124423662469175     
 H      7.7972712256223531        6.8593087220038758        29.871977532742143     
 H      7.8191952235995501        6.8617936672615318        5.0079843803984740     
 H      7.9543348711957007        6.8399563681631941        11.204837884801835     
 H      7.9818535611782426        6.9859057044624278        15.380092394583178     
 H      7.9134115161986136        6.6902645100915876        6.0199627375891565     
 H      7.9078027015724057        6.7911223890840402        3.9052515822488894     
 H      7.9684184564127207        6.8210618357629800        25.848654663302664     
 H      7.7739627209547217        6.8614650169513505        12.361222269059322     
 H      7.0292100013691128        6.0255107359804496        6.1015322740542661     
 H      7.9613412564529193        6.8948243840331571        21.623737246684740     
 H      7.2805097374954100        6.1633092399548968        39.979296019354841     
 H      7.0962029709393626        6.6510592325709865        36.891641595868961     
 H      7.9009152753354472        6.8872373400051146        33.873166667004242     
 H      7.9242732861370389        6.9017149558013813        20.463280978881347     
