         452

 H      10.864382706881765        11.319241453989985        16.185716376608386     
 H      6.3707466787264373        7.5720528623189951        1.3062418076706037     
 H      9.7974456042639151        11.879527505113261        15.933340760693639     
 H      11.685695262734759        7.7061891270518741        2.5774378222921053     
 H      11.781077651802407        8.0293549071067432        11.750171320996403     
 H      10.220592531890649        6.3127053078773514        31.587761896944393     
 H      8.1493132668406467        6.1395276515035153        35.373844934812290     
 H      6.8514909318664685        11.054046767484245        12.099774200641239     
 H      11.988125879885281        8.7955532120209021        2.2129318567213847     
 H      6.6097298091967742        10.720690451793081        20.431586158445640     
 H      6.3920244377663229        10.433193858673608        2.8701613029287754     
 H      9.7444508110871784        6.1086091241570193        2.9549085231813992     
 H      8.5169089812119729        11.954407219859263        23.867992132087387     
 H      11.902654678641928        8.3593343116370153        31.182830629980529     
 H      6.6138364253390733        10.737096579664049        39.674887178983859     
 H      6.0988665663255555        8.4563657958322036        15.609818247995539     
 H      11.781884871467222        8.0498828061080303        1.4721525193949097     
 H      10.173737119336057        11.741959099697464        22.365935910421069     
 H      7.3317222572491367        6.5103211287444438        17.884411900657451     
 H      10.160252469238857        6.2359604108589695       0.57721825448884567     
 H      7.8246978271443508        7.1912670169140567        17.140707317669211     
 H      9.6586638730875016        11.906300073033849        39.230259574504544     
 H      7.6367794726060181        6.3435941430897174        29.325462500424745     
 H      7.3314012482236315        6.5273565554908766        34.931764433806229     
 H      9.0399421730312230        6.0084403488548492        20.839376045381776     
 H      8.2563512915740471        11.813466228238049        26.999499437497388     
 H      7.7377094463212801        11.674310925657000        8.2271193221850432     
 H      7.6405373184323278        6.3281863159985816        15.270296871464080     
 H      7.2513195274740108        6.5636470462161567        4.0491110703925672     
 H      6.2895121908983285        7.7235071662961348        16.423772111139932     
 H      7.5502489452675405        11.593710216099069        27.815239061885840     
 H      10.808701390756200        11.391947125022551       0.80621502693400893     
 H      6.3279505121644384        10.277395357519428        35.915400642183819     
 H      6.9741006722443002        11.167644685323031        33.004934198567099     
 H      11.964693173028008        9.2372008368633836        35.220647970316797     
 H      11.358796291078516        10.787165355294350        17.196479242293883     
 H      6.7709322320359489        11.005173444332460        8.0177250066355548     
 H      9.6109818117427430        6.0629996539219535        25.829325462897948     
 H      7.6130695805811053        10.570137340821418        20.496493763937305     
 H      8.5334258364787399        11.936432773996405        31.678666204352677     
 H      11.611478784544390        10.409225732333413        6.9735452343808007     
 H      8.0541514646240273        11.841874333452656        21.526272299393909     
 H      10.147757749944814        6.2300471333258889        24.731511911417638     
 H      11.924349211829307        9.4559810852135708        36.997053740392438     
 H      11.328380025879914        7.1571489431376101        12.098313752466526     
 H      11.477244671826490        10.622510339632651        27.670374694142087     
 H      11.583831393021683        10.501887453676080        30.606560630622589     
 H      7.6033760063533764        11.632268570577279        32.339333441962140     
 H      10.710709719195954        6.5551684839208439        36.613001417969784     
 H      11.948192177392405        8.8933689303086059        17.800753827146984     
 H      6.3631257825492646        7.6222943454973802        6.9555634505278103     
 H      11.967021194958599        9.1127532372732851        1.0862290978427298     
 H      6.0354805130517200        9.2354410956406738        14.821014414347557     
 H      11.915681549416998        8.7465425520427988        6.4985969766110525     
 H      9.5009858500498350        6.0435775681302717        14.476294475168393     
 H      8.5687076864034690        6.0749435634766771        26.303508167374307     
 H      9.0996448333885631        6.0020728390513813        37.386389693467464     
 H      6.5592649405395012        10.689624067166520        3.8764266226638844     
 H      10.634168501671526        7.8163445421140150        31.693058107124944     
 H      7.7941152043504527        11.735315277154786        38.179572134533039     
 H      6.1892025262631236        10.002450587763473        15.912688455157623     
 H      10.879638701115478        6.7207559159692432        35.580276977403244     
 H      10.503661965797404        6.4265288698390526        19.454793349413610     
 H      11.355810798532776        10.812020522247204        35.637858924303387     
 H      11.626990651091308        7.5591892835904426        7.0004466490988975     
 H      7.8135209059187822        11.754783408225142        12.259563108022595     
 H      11.773003633630621        7.8609635415596264        32.215601285655303     
 H      10.659953037151816        6.5197554093426167        3.8532868456470064     
 H      10.368992191012099        6.4254145483007710        20.649417390997844     
 H      7.7420834652755550        11.704799106820424        17.499500196163840     
 H      7.8874973442145793        11.731804355143217        13.500760740383265     
 H      11.611059228980933        10.384582929663619        23.628922481572417     
 H      11.033916192312041        11.144390127307533        11.964056362232343     
 H      9.9083625077630373        6.1800595232578965        10.423283645773925     
 H      9.4353111105795637        11.881238845088298        28.780458325900767     
 H      6.1563154410589656        8.0508479100793888        33.767997206783996     
 H      6.1154165213210785        8.3084288568418216        1.9377654356196450     
 H      8.6433389375919347        6.0966027206912212        39.006076359463485     
 H      9.1725826018122536        6.0073121025498697        5.2895359959820523     
 H      8.6924291249712411        11.969406106703246        12.710744843594261     
 H      6.5980289057155330        7.2694494616098417        38.972911319103808     
 H      6.1402965836633019        8.0937152633361702        25.815175271296866     
 H      9.3294279774614992        11.958863414078060        23.091842071407658     
 H      11.523352373101332        10.498523248831093        11.177501187560875     
 H      9.8256988998685646        11.822082008983879        24.025089415880295     
 H      9.0718982507915999        6.0110947023428780        34.935371806671945     
 H      7.3713136086539430        6.4919040538096615        10.845813734019250     
 H      6.9888498456734283        11.203895640692000        10.298139682431669     
 H      11.727556184491553        10.197076837205856        34.852913976778545     
 H      8.6322189164486449        11.956978290050536        18.635393772070191     
 H      7.9438292301913034        7.3135895830941484        33.763073970078423     
 H      8.9802329911173810        11.973712120456485        5.5307713540148846     
 H      11.920772093773621        9.6791266508483886        13.319959100608576     
 H      7.3519580111692644        11.446767370640318        35.707815067576917     
 H      11.230424848053257        11.005802047620865        22.440435221348338     
 H      10.885631602102103        6.7065051125045212        32.264644429062038     
 H      10.088374674298656        6.2410053889423072        38.888021542909129     
 H      11.327124501279179        10.848574052100791        39.971268934835827     
 H      6.4267791594975430        7.5070214569271592        12.364120214769068     
 H      10.171281654390084        11.735745340736308        1.5910661222781313     
 H      8.0089310338493558        11.720891116081138        25.787319618412415     
 H      6.0296126416958158        8.7276620331154486        23.993042661915972     
 H      8.5600245738339602        11.940252839507195        16.714080699053874     
 H      6.0864045328416729        9.4511882033079839        37.764201290766287     
 H      6.5684301433293371        10.593015620586403        19.200754215177579     
 H      11.710696559827969        10.171547106750850        21.717729863901837     
 H      11.074037638884098        11.160784021424650        7.5874744859861014     
 H      11.904046499077930        9.7266332684913976        29.802972758064374     
 H      7.1593022858722941        11.323226630220946        29.743407133358438     
 H      6.9276941443477797        11.009482474700079        21.354805210281505     
 H      7.1243184005704387        10.069485348062351        8.1011105268280303     
 H      6.3673810994304905        10.424836148502157        22.125625877152448     
 H      7.1394138023046274        11.286391539333389        38.860251280022851     
 H      11.866145478385878        9.8027669360111869        10.364335482641675     
 H      8.1699873150144473        6.1366780784222899        24.166070774402467     
 H      11.904207758896419        9.5684656811196742        18.553335358715596     
 H      9.2403720293767666        6.1068489788589586        24.037426585832748     
 H      11.586977055455428        10.479985700576842        18.179056490357322     
 H      11.603577372702635        7.6288374603486382        13.975935714619194     
 H      11.679873416258658        10.254572941999600        37.788128373752848     
 H      6.4342536356606086        10.532963380353234        38.398478114897287     
 H      11.731537259476497        8.1041609545888669        37.086888988263063     
 H      11.777597441856122        7.9020297480894666        19.937149174293722     
 H      9.5375599257764065        6.0521832505865074        28.062274716056251     
 H      11.707287880035034        10.134694014294707        24.623577425713325     
 H      11.333208409664220        7.1384330542329248        24.518359933422087     
 H      8.1284287666302184        6.2084886591651820        1.3170082923500470     
 H      8.3633990883223692        6.0756781341402828        22.963609948301706     
 H      11.412399343597585        10.604901053973011        36.806681258302632     
 H      6.6829526195200701        7.2106113751022543        18.310385808544392     
 H      11.605694423419969        10.299738904347022        12.233512209169435     
 H      6.9956347860080692        6.7747757556361199        21.628783778295471     
 H      6.1367407521970483        8.1225299388496168        13.334865044160621     
 H      6.0319676059344340        8.8191362466988306        17.964648148759728     
 H      6.7242232531874926        7.0453390011979806        17.182179851470590     
 H      10.873345058383855        8.5825252978371402        31.063443420860867     
 H      6.1210893823574288        9.6730374364299969        7.8928178397299362     
 H      9.5700085963743700        6.0872699899299993        26.946153885320044     
 H      6.2223538992676737        10.010662015357395        21.168338031767934     
 H      6.0327258081740149        9.4045123175180478       0.12114207710671658     
 H      9.6399839008440953        6.0716914248929621        7.2308063857738123     
 H      11.242778633847148        7.1102059991712094        7.8527003043452135     
 H      7.9262627386672495        6.2232159948122527        16.903467581361745     
 H      8.5397840025535103        6.0422555796899848        14.894649980217554     
 H      11.638696554526438        10.418044628566275        28.825061558541591     
 H      11.045014993458878        6.8300528696530849        8.8161182189074960     
 H      6.0880166925323138        8.5216955919603112        38.272873855470714     
 H      11.987126932874551        8.9904414400590333        32.110386084471713     
 H      11.904133911189966        8.4161300705712421        7.7109525358759354     
 H      6.0407423379972691        8.6464984441714332        37.159051285593335     
 H      11.455609036608871        7.3390909562020568       0.54237561468691442     
 H      11.887842507623395        9.0269986029197486        16.663652857036677     
 H      11.392374309060756        10.808957504101132        15.449949667877569     
 H      11.085232976065761        6.8759288648040826        38.663678844930516     
 H      10.479100508180021        6.4016611436252386        37.951404648363734     
 H      10.736533425301008        6.5741549261041223        30.764793362923253     
 H      6.0856420433418137        9.7046056068581716        3.5450680565813499     
 H      6.7324420969196925        10.735061455940780        30.724569290350402     
 H      6.0261054131997902        9.1202252658460772        20.710917041520698     
 H      6.1511329644481050        9.8859107308030403        19.953790185602315     
 H      8.0737972605757342        6.1983059255737416        3.5396123358029423     
 H      6.1089350539612086        8.3291241785641947       0.64520603753736627     
 H      11.597551239905933        7.5203291346945083        25.994743616426874     
 H      9.9418369150829875        11.832584635389980       0.35818783663158982     
 H      6.6695679889320401        7.2131575893947364        29.767531610061951     
 H      6.0382783165021321        9.3339166879675570        22.012130815731293     
 H      10.293410847632709        10.580952765128655        11.489639264758987     
 H      9.7313414027021263        11.903630201244329        30.138117721240132     
 H      7.2214978345932890        6.6391060874476020        1.6687797133870073     
 H      7.5941549744024277        11.649535095425012        4.0874637371464226     
 H      10.044995587048982        11.669930256709346        12.911487267127580     
 H      6.6628667475282093        7.1669403055287102        33.255320911329349     
 H      11.983787879824048        9.2988651457930516        19.713592760008328     
 H      11.907793026699336        9.4762967848787909        7.2844930367007237     
 H      11.373597496876112        7.1766023013355067        31.446352907298373     
 H      7.5630070711497082        11.585770988463691        20.585457460161074     
 H      7.2392500065181817        6.5815397889031821        12.055365154456675     
 H      11.720719844831903        7.7565611649398907        38.279470518452733     
 H      7.4443302831908520        6.4497866684279579        6.3144785912270596     
 H      11.740706260439527        7.7845846211363741        12.789642474966517     
 H      6.5344091174239907        7.2910000354401756        5.9908435704245244     
 H      6.4815265934784438        7.7143580952945667        23.579653027349384     
 H      6.0439293191023893        8.5359955408201227        2.9676063063545057     
 H      7.0821861169093632        11.263475145599205        9.1097563265083750     
 H      9.4395476870836941        6.0355585440159674        39.707978051674239     
 H      11.919848234877062        8.7751241404063958        21.801417971165957     
 H      9.1605320683841285        6.0129377132551358        16.737012210138960     
 H      11.844907671424897        9.3699897124176843        8.2988881949194493     
 H      7.4071480109846721        11.525813326502139        15.342825740495710     
 H      7.9725351416794465        7.3018643782158019        34.958361459459461     
 H      6.0275355494504792        9.1002971973871496        13.651089587481602     
 H      10.197867940999735        11.710517309538874        28.037260622887697     
 H      11.968448873441558        8.5708165592248911        30.040191384680931     
 H      8.3400968661404882        11.916509203330650        10.479211870861239     
 H      6.1737771024239567        9.9943052283138645        14.134476708715519     
 H      11.500465526177345        7.3850165306765359        15.027207740442311     
 H      7.3671438317899351        11.496111310796346        39.870417256343366     
 H      11.088433389503734        10.968822760507926        9.1044979141551590     
 H      10.825697203342386        11.318141691950096        17.933308017649914     
 H      8.6023101084963507        11.932092729582781        7.4432224075538302     
 H      8.2940092028393249        11.808308431747340        6.3224727173120128     
 H      8.8901830401859456        11.916793429348944        20.787880372651394     
 H      9.5520217829104741        6.0760397392627947        19.858240680390566     
 H      11.517124971074804        7.5831106979055853        39.479813875602837     
 H      6.3232892025661345        10.349764850041860        8.6970121650614978     
 H      10.299808315054399        11.631606705299296        2.6138366350759217     
 H      7.6275920726782021        6.3524410317889339        9.7410744624987444     
 H      11.814482103821964        9.7630650700381576        6.1789104805783381     
 H      11.170196964804862        11.061538517274084        34.564394606359983     
 H      9.4519860942573040        11.946395254398382        21.683475515603483     
 H      11.901864122598917        9.5015637870336604        30.909192427301793     
 H      9.3781888695701277        6.0460469211494328        3.9656129124813311     
 H      6.7578391468676875        10.960124938523451        24.489871273399562     
 H      6.9963103092746035        6.9338092852185884        27.583523625580696     
 H      11.915968803353875        8.8457967488139264        37.834203767905727     
 H      6.0643479779072127        9.5561605553587210        36.585984502319718     
 H      10.850580489582374        6.6583925993283533        39.758973692094166     
 H      11.445418680435795        10.735771977941846        10.081719437097917     
 H      9.8574148974916689        11.873740589238245        4.7854338792928139     
 H      6.1174256981024424        8.1779705605345718        9.3221188827371559     
 H      8.2428424618065712        11.850413428082097        39.083267624770563     
 H      8.6898167526944885        11.979960964733701        34.090713298320821     
 H      11.964072363730097        8.8245803909505174        25.900784439164870     
 H      6.3382028168620801        10.351608259901957        37.169257033819825     
 H      9.4610949518969427        6.1281223007362939        36.019692769435288     
 H      6.0092340577888894        8.7706938114043567        31.058539132680128     
 H      11.481606205240396        7.3298409425290503        3.7599853965477386     
 H      10.054456157125051        6.2134254714416182        16.279816589118440     
 H      11.043887982655662        6.8746675738854517        21.439453751127381     
 H      11.949936439335680        8.4919824124171157        13.557805602507168     
 H      7.4953190664893867        6.4847209574577489        23.481537771529382     
 H      10.032779704571043        11.804093417914778        34.229483523902459     
 H      6.1068192816593285        8.2559818816177781        39.386302130664006     
 H      9.7704202953418573        6.1239585668501135        30.363504000399331     
 H      9.9925513346512709        6.1835140676249614        32.694390766347759     
 H      7.1624807344256221        11.323881138353515        25.401791654602011     
 H      6.8492165902802364        10.926623518243089        31.755688883325753     
 H      7.1803840289767056        11.310807925179549        14.299958459021060     
 H      7.0206210576766637        6.7556842003141826        5.1885243208097744     
 H      7.3680718375140293        11.449305057378631        26.602835106172638     
 H      11.963641123058027        9.4565042807468593        3.0004555698802817     
 H      6.5924673046548419        7.2562974728536940        35.523349069643189     
 H      11.348093672806623        7.1495140899942609        19.033956963716491     
 H      7.9413870703355025        11.781994526488850        24.687797305727464     
 H      9.3531556116704078        11.978278415584388        17.674513842212985     
 H      8.4088588397236119        6.1299455469763533        1.9795275400581281E-002
 H      6.7912256255166508        6.9700299255918896        22.668051492541835     
 H      11.955135897357453        8.5832673860940769        18.895198000962083     
 H      11.886540349004038        8.5362998142532742        3.3916318397833907     
 H      9.0043492344819800        11.994956731216289        26.204751497265512     
 H      10.365182682460087        6.3859815829710698        7.9941254927416967     
 H      6.7809715324674888        10.991253285708108        16.117867120209695     
 H      11.892365721349552        9.7963597771220901        17.373292830032931     
 H      6.2361520089713371        7.8573004967284783        17.658536904323814     
 H      7.0746824976964362        11.271186633429730        34.227399766355141     
 H      10.192146173378219        11.746092863743810        16.999928816894265     
 H      11.932945067361986        9.2568183294515300        14.338389162013707     
 H      9.5333449395931922        11.913061846322082        10.811159150458909     
 H      6.9490404532001273        11.171494476482758        37.731168575492553     
 H      11.476242447331309        7.3394559622063493        36.330964031932616     
 H      10.312416931389938        6.3083243398340771        15.223152895075387     
 H      11.654129177493271        10.322645902797058        8.0270536602142410     
 H      8.1855545445008620        11.883589982984217        19.787550167557850     
 H      10.538019020845754        11.553105847166410        35.218693056652306     
 H      11.881473035826337        9.0040054112877410        5.3673914694083216     
 H      10.640803202170469        6.5097190512511300        6.9256593766176042     
 H      10.399390596462620        11.596715872781457        29.333863785456632     
 H      9.4588013950526229        6.0483733535049131        8.6836671144160498     
 H      6.5912033755241284        10.762965562703528        26.183060356071042     
 H      11.204703059675325        11.019153666275486        29.775306077298058     
 H      7.5552243313639087        10.545384039068416        3.7893261568247936     
 H      8.1793460303921570        6.1189261385923466        20.121346078999245     
 H      11.844635297441142        8.1217880451099678        25.165722570587629     
 H      6.7547820580473967        7.0968863636970481        10.204566734164572     
 H      9.3494406192663888        11.959122982319197        2.3594919048690119     
 H      11.021560533172250        11.165624341190892        24.129821632524330     
 H      6.8129498132131179        7.0716740991407034        28.729523782269197     
 H      9.6699215609430453        6.0881429861408032        33.969052664231448     
 H      6.0299639518420616        9.3670103239732807        38.985324567125630     
 H      6.0142116270760573        8.8357128373981908        8.4768389683212888     
 H      6.0581234940153266        8.4670952693836519        19.663130872788791     
 H      6.0331668680321231        8.9061162667162463        12.584068590916797     
 H      11.927866447894273        9.4186904857807914        15.638355208132765     
 H      10.427090085576435        6.3753520828179644        34.749159577121574     
 H      11.131344801504763        6.9642835939887444        20.103149885210314     
 H      11.916673497724242        8.3058213911017269        14.745954333931383     
 H      6.5171816494698476        7.3511509719338077        3.5358725970445932     
 H      8.8352409272293517        11.980088382516955        4.3499414744414642     
 H      10.224722297342188        11.723067220083655        11.577969663396281     
 H      6.0940744204389086        9.5190207893954852        2.3255910015501748     
 H      11.628414151041786        10.336619931722149        19.522824337671793     
 H      6.8441681877441418        6.9458871254048358        24.119914322062598     
 H      8.6201162088125152        6.0482010591718423        28.700274943485141     
 H      7.3640518974158597        11.511234316145543        30.892369658212033     
 H      8.5042625336403130        11.950993518524026        28.224207742975285     
 H      11.932624179496264        9.5798819851342252        11.607123876722669     
 H      10.970287013551522        11.185830893971357        37.663651434430150     
 H      6.5134716004246265        7.3442172231774938        26.777194431342370     
 H      8.7142784383954339        11.971006820455635        11.559835150318561     
 H      8.0613275868137002        6.1650635393070772        5.5565369283754604     
 H      11.370270681084376        7.1663511273712341        37.523926702517734     
 H      7.7170078725579403        6.2919872622819737        21.118142497211519     
 H      10.482047800820670        11.542501322755927        9.8881730744990204     
 H      11.834042149898075        8.1291569669147510        22.928474440890010     
 H      7.4783339838557286        11.475412201385712        7.2372250945032075     
 H      11.620347007197802        10.452399373433483        33.773044174313277     
 H      7.6302417514183167        6.3425782784754867        28.244844170954867     
 H      10.659053378079051        6.5788042279601555        11.080474394524341     
 H      8.8123919789225518        11.986357228187716        15.672018815440122     
 H      6.5687710830119901        10.720192239411521        14.864729831487267     
 H      11.963926618868291        8.7346218442647316        36.160097709747916     
 H      6.5402074968121484        7.3247542215723449        36.688522624647860     
 H      8.7413321834408766        11.935957746751415        8.6691638257882957     
 H      10.565269252302087        11.511754834805220        39.606517825300010     
 H      6.6775460161677138        7.1052997812206016        11.379962678033728     
 H      10.402017277806594        6.3499501120648354        13.512481009529086     
 H      7.7871461640296724        11.720222887453403        28.903258172751393     
 H      11.176708510353514        10.985151783848485        38.746519300010611     
 H      11.883858961241707        9.6896298116994366        28.147053528256428     
 H      8.4178922127214442        6.0659133145738737        15.991169642442905     
 H      7.1942806422324130        11.345359972045026        19.673012348201819     
 H      6.0015989823104601        8.9856390954916918        25.074290746918994     
 H      10.939239149809639        6.7624552868482715        14.310482711833695     
 H      6.1740050898333871        9.9657791734460712        30.244074218212710     
 H      8.3220806198475703        6.0838563148620439        33.260081530121035     
 H      7.2451057225481019        10.264999616351876        14.253926330362891     
 H      8.0495319520315451        11.811844968268455        5.0434225236428363     
 H      6.0776923274569121        8.3770001535073870        22.741331957331013     
 H      6.0485296107978650        9.3943948437777181        9.4503475421967629     
 H      8.4252484978970443        11.082723941840296        4.0212470635197146     
 H      11.393756728051647        10.766162028841268        5.8877832779804251     
 H      11.998495546265209        9.0457931919410193        23.802193742006065     
 H      8.8623065984556018        6.0868097897874671        6.5500120860741564     
 H      6.0230978856482862        9.1779094250548603        1.2541234507646850     
 H      11.751224466875104        9.9735112423889269        36.046736656614307     
 H      9.9957666406766599        6.1709225090371893        6.0532998634571289     
 H      6.4926210058898146        7.4318793689654807        8.0137950037546819     
 H      11.159225880439008        7.0027745191625952        13.147782927154037     
 H      10.212520056376222        6.2700207958156344        9.3276465586471726     
 H      9.7237475497781478        6.0890065388517884        18.724864161549270     
 H      10.713382431290524        11.437674490208618        6.6152154121816693     
 H      11.779471993872660        7.8803504878736765        8.6564875456059855     
 H      6.4544886744529251        10.541570143336683        9.6913821109949687     
 H      9.0595447342849340        6.0429700823627153        11.198533693602219     
 H      11.545668760218925        10.539316192789101        1.1900445266466857     
 H      9.6959911439538367        6.0851521883582649        29.293165146912539     
 H      8.0958509766831792        6.2292692742832294        11.520693304895611     
 H      6.0710524656233922        8.6573809768735135        16.725880717513817     
 H      6.1080136306407908        9.7184897263254459        24.344633447912358     
 H      10.797191853921408        11.309484982269224        36.414613465721104     
 H      11.989367483941745        9.2103210377611635        4.1714710717676162     
 H      9.3892659803845824        6.0319924462340389        15.532805842106159     
 H      10.416856395394927        6.3953700698545672        26.393084636825055     
 H      6.1264437852871039        8.2418486423997788        35.102119271650750     
 H      8.4469801149427006        11.934110688257149        32.918263188526765     
 H      7.9547782066283377        11.809714057410817        34.923858275016272     
 H      6.3000409654191847        7.7844497570114823        27.999006588548973     
 H      7.4803104374561791        11.581175166404899        16.540021424236361     
 H      6.0554568378306026        9.4344904336742470        23.012508344736865     
 H      9.6236567674399591        11.886644240044067        20.020413600468153     
 H      6.9240718644113057        6.8870847190851565       0.73114442002271041     
 H      11.017562520291598        11.215137896333408        28.508064892166896     
 H      6.3984938719397739        7.5314484594379749        6.5784520407430602E-002
 H      9.3924170956598871        11.934033021210327        27.437258618321440     
 H      11.945715875583764        9.3046511549936497        26.799526031594382     
 H      8.0997764009773050        11.837648983183115        14.653580044638311     
 H      9.5153802702755854        11.948186238185148        33.359780210903217     
 H      9.3152070070382198        11.974926140448670        6.5913433471534146     
 H      7.1991844651095755        6.6060908000916054        33.902350004227166     
 H      11.508940801494353        7.6857971639177336        30.449320633946627     
 H      11.775142015714748        10.121655323960976        5.2023447887017671     
 H      6.0899058998235391        8.3869693413206825        27.038706189077594     
 H      10.988434896681696        6.7585588388837072        25.524510335932511     
 H      6.5401987758271458        7.3093678623656784        34.402049732533442     
 H      6.1412409317807253        8.1277220671580963        11.622747531075142     
 H      9.2716223819702730        11.173472275331942        34.417813847376777     
 H      9.9334082491320075        6.3185071235100079        21.654861781278719     
 H      8.6438264616513791        11.951650632030198        30.458138933253991     
 H      6.0629441185857074        9.5663065499897719        18.866717210793883     
 H      6.2213744123713077        9.8519806591851786        4.6002457636675489     
 H      6.0690759578150537        8.4146174243869112        6.3132814795661325     
 H      11.719745513993237        7.7497843571742235        21.171585877604734     
 H      6.9555769339962144        11.162308584112841        4.7578516700504663     
 H      11.885327420835484        8.2086918047816066        26.988192906429369     
 H      6.0178998802052037        9.3105272224395659        26.097691914740309     
 H      6.6408384805268588        10.847008805215287        13.369911427834628     
 H      8.9138934310254250        6.0337417244156955        25.097945699691820     
 H      8.4688676768441447        6.0593624124537664        27.429212656283173     
 H      8.4256555513259173        11.867749924932173        3.3302572902475851     
 H      10.725246872716713        6.5465987843893130        18.479964402768672     
 H      7.5942057445991358        6.4433835211343480        22.359038579264073     
 H      6.0671895345814564        8.4481003717449461        4.0262767388431557     
 H      11.737357716332294        10.214144815697274        25.774364723148157     
 H      7.1860220106282062        6.6248754894721236        39.558496873868989     
 H      6.0224598848209085        8.7462660607486900        28.273627129850155     
 H      9.6707261668575306        11.920350087552199        3.5796302290926172     
 H      10.641850033627739        6.5347574445717038        29.763875257347042     
 H      7.1006855733978087        11.321479905729202        3.2299029752095136     
 H      6.1986603604800088        8.0089377372963995        18.755034189489027     
 H      8.9410458347178370        11.972159144816882        24.809416094617667     
 H      8.9092525131847466        6.0154893089759192        9.5914870108555359     
 H      6.0691061517686844        8.4510690362984437        36.138507555610744     
 H      11.986129122366528        8.7163338513558433        20.753289657188837     
 H      7.7898058311813569        11.736307883512140        33.703674202008777     
 H      6.2118073714584501        10.093460226657610        31.343244043014970     
 H      11.082157473906291        6.8965940367427017        2.9333681229330795     
 H      11.875477769673875        9.8382479823984639        1.9691335343039391     
 H      8.9109983556133212        6.0152171803903949        17.769838904160906     
 H      8.4995664503014439        6.1015651848009362        21.780395922918025     
 H      8.7891276882109697        6.0091657994287981        13.757687228063663     
 H      11.774773103529023        9.9134320048699944        22.757589991087947     
 H      8.3368746246393641        6.1442467433676642        4.5365624212473605     
 H      10.557886958305582        11.531445337642545        23.272246848913056     
 H      6.1761909598028693        8.0892573941367498        30.206326341848474     
 H      10.205659680189047        6.2728826378943401        4.7560088280268138     
 H      11.082737450902206        11.098754345947295        1.9134827373132044     
 H      6.1722719180340500        8.0150291977298078        29.082118720799759     
 H      7.9272295008573002        11.771390493831545        9.4694132036644731     
 H      9.1259384784722393        11.991447450135871        38.340263687962228     
 H      8.1655778046782466        6.1255679042196860        34.349428689901927     
 H      6.2149314164583922        10.076788868588572        12.849032847724530     
 H      11.980353654061634        9.2106899127429092        24.943608684679820     
 H      11.713418100913456        10.205907409704007        16.408312870514607     
 H      7.2619644985838256        6.5604706621184681        16.212765299886367     
 H      10.273257031614857        10.574237895169183        17.146627287589197     
 H      10.336466831586812        11.658517637579282        38.453141138258111     
 H      10.466318896023569        11.594226657300144        21.080822043704305     
 H      11.885344183098310        8.4496405456821524        33.068213256406196     
 H      11.267938041833029        7.0736396129816645        1.8700942799819924     
 H      6.2176425325611318        7.9263472983230487        24.689249651385591     
 H      6.3282162536446291        7.7028971158698933        32.153984953145560     
 H      6.0002105394993803        8.9652241585929229        29.722084980044514     
 H      11.846675666946448        8.1190243970293636        4.4768299256013329     
 H      10.959957713933060        11.269688616329766        10.841815371145714     
 H      6.9596791049490401        6.8346139931597270        13.066388776996693     
 H      6.1070255996715623        8.4005798933701321        7.5625357476334258     
 H      11.973626411411125        8.9657914676808534        12.561902170738451     
 H      11.874567744860286        8.2266689635360919       0.28350571318597900     
 H      7.2251878341493265        6.5931087442901370        7.4367733544913142     
 H      6.0164966500202182        9.2614714253307415        32.024750486212625     
 H      6.1603826758533460        8.0409256099902393        5.3217398010571957     
 H      6.3649500860181281        7.5750758867669372        31.063796164930558     
 H      8.2598171663216462        6.1219250429380949        10.527183154935738     
 H      6.3322802258487343        10.205085709455814        25.230029818750403     
 H      10.887065912500848        6.6714859282728947        10.049919022840305     
 H      11.766801178435310        10.122482487818262        9.2413432920668370     
 H      7.9779339160933098        6.2659551540242360        12.832192149271350     
 H      9.8925541463874040        6.2248545500796419        17.636864794261342     
 H      6.7801113350011066        11.006150967715731        36.497219498315090     
 H      11.768976397104225        7.9859858803377426        24.151972025403037     
 H      11.873309702132961        9.8196750802401720        32.810156145491405     
 H      8.8726604280885724        11.956374426602810       0.10861429680868828     
