         226

 H      6.9611072902410358        7.8939455285416820        11.854718380396353     
 H      5.5390956968905343        9.8153713892241203        29.586244717658069     
 H      4.9468946436500776        6.6097010925814956        14.949353824279594     
 H      3.0304409348989720        6.6144707482037273        6.0954962080207764     
 H      6.2105566354180084        3.0773771787773381        20.623661243042246     
 H      9.9403948314757216        6.8222714490827876        16.766786907817071     
 H      8.2828186290319810        3.5840077719422272        39.274415043254756     
 H      8.7800015639270175        8.6763642922143021        31.598610144958478     
 H      9.1294795808191651        4.3352239727380333        12.139562002751783     
 H      5.0567096772022895        5.9418465136959098        12.742950345212645     
 H      3.5239822732793735        8.1794603849441465        24.199286434533846     
 H      3.6327490343738513        4.4974022320502520        11.882084759894218     
 H      5.0066905622244660        7.2125727542261746        11.009770867748527     
 H      8.2108406706597474        6.7136868635025433        7.2410322239505271     
 H      5.1848487503237690        7.2827460131416260        21.456149808745153     
 H      9.7932679143998715        5.8466156810444039        35.272141627725865     
 H      8.4940514860580159        3.6470021747355590        3.6087543224315612     
 H      9.7233872989366983        7.6696019621047640        17.428880904685819     
 H      3.5514965329614898        8.1024575191274284        1.6316791423636496     
 H      9.5970782868953393        8.0169010130193783        31.439917294592334     
 H      7.9446849552095875        5.5116759945032960        2.5550996267833299     
 H      8.2700436071956940        9.2106890108846038        15.188179132946702     
 H      6.0353549928350523        9.9535220755198992        17.144652910996314     
 H      5.0572847326849155        7.0091985060652382        33.790404829427352     
 H      5.1227626687371473        7.2140107452560205        5.0794982226530587     
 H      7.0823801280516800        5.0403595763492595        17.410892871797003     
 H      5.7188069657618739        8.8085755081637416        37.949451352793602     
 H      3.0554972975764279        7.0492052220083572        26.451446628840099     
 H      8.8095670300427003        4.0673609878732391        16.245027787929221     
 H      7.9037560765510104        9.4142898578685070        8.9946428332918380     
 H      4.8907115979037545        3.6621443360206118       0.89082320218564270     
 H      4.2472417379062968        8.9598089673412282        3.8336433744646703     
 H      7.5984846194254114        8.5341180475189660        17.419260529946111     
 H      6.9315648461804198        5.4159952591452027        2.6596455797833713     
 H      7.3937583390708008        5.3941867174813858        35.934118246610652     
 H      6.8917829016675238        9.9269812251467577        27.511547823981850     
 H      4.5846125834757485        9.2511794748802103        39.795919370746958     
 H      5.2923059594182007        3.2999678830671475        23.007562769326206     
 H      5.0177377500024409        6.2292461257873510        21.172707904647396     
 H      5.1355916877647152        3.3302097070432040        25.027337474906918     
 H      7.9986296555809755        3.3549136216464857        16.233009525997943     
 H      8.9444281346621111        4.0418426424042000        38.642484723811364     
 H      3.0220296350309082        6.5888534540492945        28.642476491751076     
 H      5.3209458263739444        3.2927878193430438        11.764016528698972     
 H      8.0648731889613892        6.7382944532089084        18.175817883682548     
 H      7.8819729495650348        7.0036661265910771        37.016957700026538     
 H      9.8281705954481247        5.4799671573022950        5.8028652552106941     
 H      5.6347096344476100        3.2574533085351911        36.677838678524701     
 H      9.9706510069847489        6.2777154174961218        1.8091008227586038     
 H      8.2126610936831312        9.4811139077539739        38.235316071088711     
 H      8.9180458973024379        8.5017712068060369        33.821836754044291     
 H      7.0459925884982928        7.6489092927745288        9.6399655560950954     
 H      6.9627964951411832        4.8770110330273662        13.034174250095534     
 H      4.5446992992392650        3.6004549685468135        2.8769029560647024     
 H      8.5714663407451450        9.3087436436071460        35.898405273752822     
 H      3.6178764622109099        4.7046541150901149        20.409350320822050     
 H      9.0715763729330892        8.7456970334491331        37.935213756328579     
 H      5.0797906742659666        5.3742942333901880        17.086179282232390     
 H      7.5827281075060329        5.1589626024414086        10.796411324020839     
 H      3.7164060010823228        8.5818592749685401        10.003577232747064     
 H      3.1089185355306821        7.1704541360635199        4.0305815801813898     
 H      3.2283798154013312        7.5008654222527449        18.260948256743827     
 H      3.4737279374026020        8.2467524515167820        16.344329863856565     
 H      9.5704664840860918        5.1507653611297917        7.7933395919688238     
 H      6.9850290608013852        9.9441111153393127        25.401706440218064     
 H      5.4884380959898111        3.2442189636264027        5.4519343835359226     
 H      7.3510538383527617        4.9314239947894878        19.407903812922989     
 H      4.8243902148626807        9.2361648384470261        10.475884007338646     
 H      7.6425238412573009        3.3723569703806535        37.026510072289092     
 H      4.8224439621097686        6.4209140055488554        29.692930261218290     
 H      3.7248039064391665        4.4390017509445761        36.780709233305416     
 H      7.2680738900576340        3.0875526110414868        20.523221392373653     
 H      3.3140863384195454        7.6787299353606731        20.335760843826137     
 H      4.3459053739161337        9.2267829159666856        33.277384002476474     
 H      7.6068935683141472        3.1934905919555794        29.261168608248980     
 H      6.2349099556821672        8.2442983312454903        28.500719561320246     
 H      9.6815639762360686        5.3989406786698613        18.546479692204983     
 H      9.7524583411580057        7.4048060723079177        19.419530527383216     
 H      4.9937457815596709        9.6120686463404503        1.8878202041987815     
 H      4.8458033224888357        6.7319223419051060        17.175838071423279     
 H      7.0469520027316443        6.6016063219805794        20.687059715995716     
 H      3.8691623187148450        8.6539047897393271        39.363974983421180     
 H      3.2944970218434211        5.1577919167954143       0.37682466441941947     
 H      5.0940645917342788        9.4755698963421651        4.2567818324098434     
 H      8.2050629984792725        3.5750630627927582        20.643443573647051     
 H      7.9414476711323454        9.6542278576959557        12.760227061026731     
 H      7.9424707962889762        9.6786708820731526        27.682521945427681     
 H      9.8668021793793113        7.0732215690645734        8.3659228293881949     
 H      4.4932663979483562        3.8744903181306083        5.4468596296802447     
 H      6.6304611571880621        9.9239204888367958        35.984892970934624     
 H      5.4187039320131918        3.3232064723987462        13.818861707778790     
 H      6.7420115854647724        9.9863293420221790        8.7317562360791978     
 H      7.2441465017402447        9.8338716460075268        18.967363166030836     
 H      5.5274921594011817        5.4740259611494375        32.287276064534545     
 H      4.2857428225217138        3.9794020932194516        28.613244661315271     
 H      4.3845447999127822        4.1141079222939947        21.097418581604401     
 H      3.1113126612233932        7.2328876831690287        30.741032247265480     
 H      3.8206290618771397        8.5960233336600940        20.486634059866287     
 H      4.8494702633901259        6.3771278215678544        31.801812671318697     
 H      9.4440841845634065        8.2471863705313151        1.8014004299009527     
 H      7.9151629121681495        5.8396073833236022        6.7720903460657285     
 H      4.3280012667328309        3.8977751220503039        9.5797863540153934     
 H      5.2828827999213610        5.4849540277334965        14.879779478926110     
 H      8.9468556719843626        6.1052902851918507        38.504898976286341     
 H      5.6892659599154172        4.8927267387026632        27.515111736992576     
 H      6.3891610460946415        4.9917085740827973        8.7966639277092700     
 H      6.6329078135538131        8.0400215624453075        3.6436594460412781     
 H      8.4363617974545573        3.6200164633549243        18.340845792523677     
 H      7.7098320064071313        7.6590762090487372        24.477896152257117     
 H      6.7113607724629629        8.9046942854421012        21.174152036649946     
 H      9.5227737164944308        8.2040698833013259        27.437089970466548     
 H      6.5633020272161451        3.1520354874837846        28.884442080199140     
 H      5.2518199590437407        3.2867903040223214        9.7537019301938450     
 H      9.0758193017998714        5.3848280070141605        20.754217275967566     
 H      3.0447837022100108        6.2410526893064695        2.1852682664587650     
 H      4.5380413978075653        9.2949778157348621        28.963571359473590     
 H      9.9457635193958076        7.1095781720291287        25.631825072383403     
 H      5.8178035483729840        9.8946541460263262        31.676092688260312     
 H      9.9424514335935239        6.3483375809203491        3.8246087035777232     
 H      3.2333792869729483        7.6091119458065677        28.608326718391730     
 H      9.7030941051264836        5.1248333353443778        23.021995335284942     
 H      7.3680309089060181        9.4280817413750153        15.602305924395234     
 H      5.6456738095222665        5.0851642553183822        39.573579996284309     
 H      6.0899430714681690        5.0432728001525220        17.267951822491955     
 H      7.7917557336337993        3.3382214424412027        1.4589062809553788     
 H      6.2447462324825525        3.0415121029862773        9.8621483522106956     
 H      3.1483815691671073        7.4888348738220971        22.349381932229900     
 H      6.5234702790963564        7.2734335644103183        30.670431428499136     
 H      9.8855207197579347        6.2816187080353743        12.506440092295451     
 H      4.9287809900240429        7.1428417768992123        3.0448079565804096     
 H      9.3450805807943187        4.4727040323398155        36.716897794250286     
 H      7.8024787280033854        7.3794400004807175        30.212523262540657     
 H      7.1008456340319359        7.4224176416641070        32.597609387208053     
 H      5.1493901915601654        5.6454539768840029        6.5297583212815411     
 H      9.5563452406918241        4.9257546115361013        31.104496622594795     
 H      5.0156497382840328        6.5911544454552660        37.940492144705424     
 H      8.2469391629721915        3.4973711822900886        32.510788920775695     
 H      4.9002142159378987        6.0392225658248044        25.759468356110826     
 H      8.0901157683902447        6.2181677279470868        4.5954742075986710     
 H      6.3467263041467685        4.8409893181042341        19.262892034444548     
 H      6.6889979461934495        8.0413476377182320        7.5784922866953206     
 H      9.7840334457175437        7.4968555450439345        29.334906992651320     
 H      6.2349264241917624        4.8751475753774027        15.142081983463735     
 H      8.7162125967107968        3.8677848232813936        1.5705409294243369     
 H      3.2534806228619249        5.9225576804105478        24.379029902293098     
 H      9.5155855928340998        8.2726431711134616        10.653088310588293     
 H      5.3430239581644354        5.3550819775996263        29.934497709287577     
 H      8.6130350861165468        8.8929025768772867        8.5021655871537494     
 H      9.8574142069576602        7.2462422469731873        12.865615372242456     
 H      9.8939571487667255        7.3098944921517770        39.989630661677936     
 H      5.2372786921429118        9.6123992556159852        33.601650239035571     
 H      4.9273144952114203        6.8796466862006040        25.124067061962947     
 H      3.8103192347716659        8.6883846163898060        5.7944038936941489     
 H      3.3841287499792361        4.9769979603637688        24.701605751429248     
 H      4.9213338471593637        6.9446753007114657        2.0925954841850114E-002
 H      6.3679783173543454        8.1460472344527197        32.610523426315780     
 H      3.2332916982743503        5.6818472264835975        11.718506099308115     
 H      4.5687317749019201        3.7636938551669723        34.894808921228304     
 H      9.9174166552078411        7.0949256279846544        21.427794731441473     
 H      9.1290223034997560        4.4083607769071511        18.525337185219705     
 H      8.2184254506771772        6.1663921814144871        30.088042000477287     
 H      7.3056927882555209        3.0983582781248185        18.462007880189699     
 H      6.2346756849730145        3.0632038940934008        26.816068980905694     
 H      7.0869620206631172        6.7944123499002700        16.266379027599314     
 H      4.8789482577631098        9.2862554418079739        8.4707582465252020     
 H      5.6102704844121947        9.8671791117678662        35.868520542332128     
 H      4.1019524094252304        9.0055984092568355        24.624913326264618     
 H      7.5990106709252023        7.5585750301351382        3.1817432575978963     
 H      7.5446158661829692        7.6100647863263742        13.853395095738145     
 H      7.3301011202128024        9.8488118752199192        38.564531323337967     
 H      9.9346449378894253        7.1040044066165340        23.498932952935426     
 H      5.6650442849481593        8.0250696351173545        19.417718546720668     
 H      3.0662763214157995        6.2685742551957153        32.859498536512589     
 H      7.8331358383701666        6.0439560305830637        11.323986210291661     
 H      8.1262025826269184        6.4648004240256869        22.537253938094793     
 H      7.9464107385568914        7.0955549871079926        20.435399301991229     
 H      7.9364949296383882        6.9878437593076868        28.214590571321907     
 H      3.2376382362101457        7.5949272989327179        7.9358409547147053     
 H      3.8145888815070768        8.6569889621577687        35.134803599225201     
 H      9.8468234299334565        6.0046183337190833        33.141229753207803     
 H      5.9082967264951769        6.8305219290507511        36.140590799892678     
 H      7.0593844350263426        9.7130086727182317        24.195173565245032     
 H      8.2033946701748164        9.2985056138705726        33.857746296017908     
 H      7.6072025077801495        5.3124164478534928        33.770701200667141     
 H      9.6611697632966393        5.3042830753657766        9.8060780245374595     
 H      7.6605503233100514        3.3273012341264421        34.996178660594026     
 H      9.9065353473655620        6.4612972875907637        19.012808645497564     
 H      9.3618311783151320        8.4413945911631671        29.490441434778969     
 H      7.5841381616773944        5.1760606698368239       0.32148239198695167     
 H      4.6519914525333617        9.3806863818291308        12.689363044554183     
 H      7.6607373545335875        7.5248503434314102        22.431650883106780     
 H      6.3411994229130837        5.0648747346558745        37.611930031982041     
 H      9.7502886089024088        6.0527476052861369        21.080575409314470     
 H      5.8499628963734072        8.0043413584683751        30.475780878862082     
 H      4.0547342563939281        8.8642525359398565        26.643260837707849     
 H      8.4065686861082458        9.3785329576678578        17.317478711686057     
 H      5.3425131130929762        5.4070985284879507        4.0041883967732215     
 H      9.9053729738329324        5.7833983535271578        38.253919960643572     
 H      6.2403008948987884        4.9229008436448858        30.053532954407654     
 H      9.5073782598337022        7.9775574570850036        8.6126775888781797     
 H      3.2203861141009602        5.5668581632156169        8.0897597079294883     
 H      5.8864348464302090        6.5922919401934958        13.096889512859791     
 H      5.5494709510702522        3.1934505377131761        32.941050343605099     
 H      8.5209399114017437        9.3024947727702862        19.495384131152882     
 H      4.9244736034553727        6.2345930974617216        23.203564847929226     
 H      5.0556042354575004        9.4965258942492401        26.767769732096905     
 H      8.6473322145372471        9.2223814793966614       0.17382170661649943     
 H      5.3009087993374191        9.7696052858869482        37.972923381573700     
 H      8.3966734078990903        3.6550199122507081        14.069879682297582     
 H      6.7171828133125375        3.0338518995098243        31.151189719169970     
 H      3.2802626642421591        5.3359624320538934        13.694571888531090     
 H      7.4432777911364356        3.2801730836171186        14.210417167417587     
 H      5.8722538614422097        7.9806059223901062        23.469490699833106     
 H      8.9506611656949868        4.2887699966444215        7.8645150052500723     
 H      5.4293759835818456        3.3236502076202088        3.3798276648510712     
 H      9.6615229302470205        5.0361422202837742       0.25083671329425566     
 H      6.3616532241502775        7.9630135093081869        14.500552248267477     
 H      9.6385187183217624        5.0016387731137861        29.097327606032422     
 H      3.6326577474819035        4.5559300988630085        18.232321406397155     
 H      5.7044032759712762        3.1273211074918339        30.764211139378606     
 H      5.5415741207646736        9.3999628385351652        6.5663642380317215     
 H      8.0641709223976950        7.2963669529664754        5.2600004524686685     
 H      6.2197282101281095        5.4801651261109470        4.6433767744105392     
 H      8.0628747162719581        7.0237715176028654        32.600192523001944     
 H      3.5662489787342446        4.6143143799920399        7.7671141883627843     
 H      9.9438861043935347        5.9295390467979336        31.111987025653193     
