         339

 H      6.2904079853237791        10.206122649380216        38.171668584578214     
 H      6.1907962151464915        4.8170703191255280        21.471680557315850     
 H      7.8823396090996294        4.5819505166721584        33.885001648412896     
 H      5.5020897494701950        5.2786924772544737        5.2647407088644416     
 H      4.6798774436953652        6.7274769999288733        15.818098559509680     
 H      10.469892178465862        7.1740403456730970        4.4731939005039907     
 H      8.2340052496190452        4.5964559652704633        32.898328135196365     
 H      10.493291299570123        7.3535072158651396        30.581656615701764     
 H      4.6149189414534444        8.3215463822959954        19.556695313549987     
 H      6.3182913157468459        4.7866150439182844        5.8823372595956922     
 H      10.396497640219591        8.0423023789891612        22.792426575326139     
 H      7.2951074644733636        4.5296771776643174        36.301744770790350     
 H      4.6914627480695525        8.5182172614778775        9.3481308084270136     
 H      10.291258867303267        6.4346661174731601        19.528769600327312     
 H      4.5749319841594218        6.9798802426150566        35.257613778286498     
 H      10.385488752380507        8.2903797064474354       0.52985403773346029     
 H      8.2296817665219226        10.387499969305699        22.555998170582217     
 H      8.7319918561553660        4.8100159486043506        29.925539307728339     
 H      4.6125871072526241        6.7174043126726897        2.2725533392583426     
 H      5.9573143279040845        4.9561199272470544        16.030801602824390     
 H      5.6805948095351138        9.8021685790862580        34.901618922533011     
 H      7.3670456764094263        7.5491864908570259        36.198569242180085     
 H      8.7215987705382307        10.224243874042996        29.935930709324264     
 H      4.6023144247754102        8.1159049769916258        34.380017824149768     
 H      7.2392233032001796        10.443705424721747        21.966221882007115     
 H      9.2632927316996945        5.0740921963247336        32.876562246184129     
 H      6.8573013145603605        4.6603487885940016        15.516243089406826     
 H      9.8340398546938435        5.6327394248104294        22.707126582907868     
 H      10.429499622321860        8.1045777380429165        12.550685055982088     
 H      7.5737853760337641        7.5218744679862626        5.4896682657275706     
 H      5.3149635986318957        5.4664208645323260        1.0347860781324500     
 H      5.7398877603096778        9.9241743704141001        19.401116160458660     
 H      4.5080165336482798        7.7057242238609005        16.282853775580641     
 H      10.379346555534484        6.7206519346578126        32.791243497387768     
 H      4.7435710085393481        6.3393198612473860        26.287926718131427     
 H      9.0699607188642180        10.000878864702493        26.922112069391535     
 H      4.5624236938866547        7.4671996805400296        9.2377576379681248     
 H      4.5584365794425254        7.0338318172987204        31.166731663482796     
 H      5.4871095154930716        9.6364431661334340        37.909330141274616     
 H      10.461389372070627        7.3518554946979533        19.055417203082733     
 H      9.5113210432655571        9.7084403925884182        7.6841849932690467     
 H      10.210691687222083        6.2317124031415236        26.432757832581821     
 H      8.1667232778167254        10.380394098367837        26.694722907402785     
 H      4.8141397847859579        8.4418863218615314       0.84340227651800981     
 H      5.3521446752156381        6.9574882175456620        5.1750407546857380     
 H      6.1018354371174341        10.066599583962718        1.1685096405212283     
 H      7.4206977461761570        7.6672494574391541        10.462516493789620     
 H      10.475490029849921        7.8103950789643974        8.2151351809956079     
 H      4.8499459666852189        8.8976990144492731        8.3555630869442297     
 H      4.7417260694932306        6.4297113643069901        9.0293690550310650     
 H      4.5097610986737191        7.3650401858377759        21.507017173548480     
 H      8.7737078084070781        10.187868589661802        30.970560082052458     
 H      7.3706327658003152        10.444604227549306        8.9119623186433170     
 H      9.9940437788609504        9.1330916630716921        22.948958108676013     
 H      10.417996499951901        6.8130378469067354        37.070248480761244     
 H      9.5796154177591806        9.6305513277420864        23.778844057475514     
 H      10.492862263653540        7.5929722987624890        25.785679076035819     
 H      9.1609835730626781        9.9642188274886507        22.726603330074411     
 H      5.7876710673440108        9.8873489912527930        30.820097217606609     
 H      4.8439619826955687        8.8660501222784998        24.245063196535504     
 H      7.6244186003581707        7.5783198418148876        20.801680856367195     
 H      9.1087154338868146        4.9719769067936639        22.325373798066398     
 H      5.5935853298191480        9.7666578229114691        24.407211429604427     
 H      6.4689791979983218        4.7038529544867114        19.082799662209986     
 H      4.8346735312732951        6.1269149438862263        5.5463372055122013     
 H      10.431888526830004        8.0416393039055798        37.145659779490678     
 H      6.3482442262487551        10.221861639566511        12.247685797120784     
 H      4.6891616739678161        8.5313596723632035        27.224123634842083     
 H      5.0986784868268469        5.7746273433312636        37.998916154072745     
 H      8.2028086415178194        4.6802518411460658        8.6639471894248388     
 H      10.141111983510774        8.6338777919924130        15.712026244572957     
 H      4.8928073077740795        8.7949586442576617        37.667357308559893     
 H      4.9250242714359755        6.1018295694039031        34.906434931342439     
 H      4.7580797313164203        8.7102405104779983        16.539587915709326     
 H      5.2642311543383569        5.5578136592041307        13.114114070957038     
 H      4.8533401962607643        8.8502526696707289        12.350713125638206     
 H      5.0166596173786546        5.8917989002121223        17.795885092934483     
 H      6.0875233977254339        10.146312482117745        20.400368049263299     
 H      7.6302961509383067        10.476745604744359        7.7246196911405223     
 H      9.3435003945900146        9.8329963762548207        36.178986987746441     
 H      9.3128805664428693        5.1407978201226330        21.306452648521304     
 H      9.9369710155711086        5.9394143881873109        36.865559508230277     
 H      4.8825881568795539        6.0499882791024948        31.362159241491028     
 H      7.4287634887581664        10.482802171313987        37.346384790329950     
 H      4.6098785051040965        7.7515756572709398        37.398582469830558     
 H      7.6996676168255913        4.5402218602557269        24.995505089338899     
 H      5.6592949774575896        5.2214085353032509        18.546255046122965     
 H      7.6849658355588089        6.5946222863798258        24.646169050335498     
 H      9.3788696132676428        9.6559963838520577        37.235600264906637     
 H      9.4268211902882513        9.7941409598434603        8.7687070119365398     
 H      9.5880628876219092        9.6347722628121577        32.978428745765463     
 H      4.6329491423918476        8.1187950441777854        18.502995053813272     
 H      5.2281864899159753        5.6550030975176711        8.5597529388780131     
 H      10.338017228130436        6.6870357806402998        33.938573712376879     
 H      8.3536053718897261        10.361534424013755        12.849998728048751     
 H      7.0442067189545972        10.410038744455898        27.376361633004869     
 H      10.460816456799805        7.0339665711233428        11.903787699377439     
 H      9.1037146289137105        4.9981732378403763        8.2645585969991000     
 H      5.5410149712661854        5.2396189179544503        29.557610304945101     
 H      5.4488826405886357        9.6487806953402337        12.488143871626450     
 H      6.0436407221993491        4.9684195687005479        12.596421636494776     
 H      7.1820034385418605        10.472363453917952        13.365525341859467     
 H      10.495039608590330        7.3978365159582511        23.613666159767622     
 H      7.3151027018772377        10.489794282571667        23.277560173137061     
 H      6.5715839659583617        10.338530455698672        7.7978234316523762     
 H      6.5489877476232206        10.310575924960217        35.150989132753665     
 H      10.331768474979100        6.7446905038656491        7.5274092564614952     
 H      5.4438544882182907        9.6350376875419634        16.003615476367717     
 H      9.2892639624985982        9.8526161411906727        1.7087000562888432     
 H      5.4589373520053153        5.3784648394555967        9.6580110365873644     
 H      4.6310509784898404        8.1670022095542834        6.2612641962546496     
 H      7.4753778593678257        7.5358914299563056        29.098201790069609     
 H      8.1546044838577103        10.339266015341352       0.58548124788390399     
 H      5.8837664760082831        9.9987248698192950        4.2187421673943923     
 H      5.2521937779796835        9.4790186207692493        27.512638266849894     
 H      5.0550232751225490        9.1504189587076237        31.541927838968153     
 H      8.2973238635801891        4.6484041232825630        36.939063596036448     
 H      10.299315897553821        6.4488495583573489        10.949416903532606     
 H      7.5358425921328163        7.4570692934463585        31.092104868643496     
 H      7.6507807225199729        7.3098086962061313        38.434547160109133     
 H      4.7007508153284272        6.4715539494577810        22.228522080095434     
 H      8.4222485591255190        10.352926319276440        11.804546583768429     
 H      10.053173530021585        9.0075704699530235        37.598392558875830     
 H      9.8207539192393405        9.3880288235881721        19.773545909263220     
 H      4.6271745394106025        7.1567853494922495        25.644540867568971     
 H      10.316231501081003        6.4903023848424901        18.515778784620188     
 H      8.9120625500003623        10.130068612010266        4.7735376684781974     
 H      4.6056319857617876        7.0031288864548991        34.242888450396777     
 H      6.1787349411908021        4.8206278047599245        32.478612041518225     
 H      7.5029670099625374        7.5528013116080457        21.795062921558600     
 H      9.0518204729773064        4.9382542419972388        11.550270820878078     
 H      8.1444267587743688        4.6156195118357566        1.6158409141197347     
 H      4.6549956386183080        6.6905769966146806        38.318087292175250     
 H      10.465630033639979        7.7256197754964520        33.883798577980642     
 H      6.1760987923346349        10.181126499557438        23.423274708450354     
 H      4.6415825536531150        8.2028017790083396        5.1004371701994140     
 H      8.4318915450186545        10.273655029269852        23.567341995766512     
 H      4.5401972518732636        7.1242374570994658        19.268772511336618     
 H      7.6032397135108942        7.5821529494673907        24.933870242772809     
 H      10.396998390036188        6.9558197155345178        22.656751969611122     
 H      5.9055261148532550        4.9588316243384289        11.546535223991723     
 H      9.5602364045107251        9.6537427431710636        29.939968633032617     
 H      8.6259383910405063        4.7444774111273835        12.850465894292583     
 H      9.8248812247045443        9.3280806926291575        26.953439886149411     
 H      7.0803067705128750        4.5615848942502435        22.018396025807956     
 H      8.8427909654332169        4.8242535619811600        14.815833816316321     
 H      6.0295683156537150        9.9685847643092078        26.846284754626421     
 H      8.0731887877238897        4.5574554412943851        7.6578824828309777     
 H      6.6264988481099030        10.343068647510307        34.135826929299263     
 H      6.8696516362297739        10.426214965506384        19.733037517078547     
 H      9.5470095474878196        5.4494796635483596        18.934535187702419     
 H      7.4943447581195768        7.4791215465561658        16.793017496674203     
 H      5.0038035895427431        9.1217725492733237        34.562710212247090     
 H      4.5075358379202868        7.5991892548889828        22.631237144234039     
 H      6.3985195216191553        4.7266415353184925        25.668242865271157     
 H      7.7511352989579425        4.5721823009094562        18.699324077724853     
 H      7.5188313861254317        4.5138615790324232        5.7336704718518279     
 H      5.1117963672849127        5.7197919443843874        15.372234800349894     
 H      5.0301208148841532        9.1461749620417905        5.2092906426204282     
 H      9.9893471078432565        9.1702845835392672        16.705237305428064     
 H      9.9447996340305629        9.2100966149996886        25.960812644107467     
 H      7.4884885998717463        7.4093705759912227        23.861874816204310     
 H      8.5083033967938082        10.314687448537216        16.082079650618194     
 H      4.5851433470641929        7.9132712219898016        24.906096557336763     
 H      9.9459325467480575        5.7712939258910865        8.5995633073376521     
 H      9.6244828404707210        5.4474332567029737        39.911958310344531     
 H      10.345759583654775        8.4233975394420391        19.793830995628475     
 H      4.6479316760216438        6.5759573363364332        28.176448724712092     
 H      8.6943266638115571        10.243166254939002        33.034619543865055     
 H      6.2401360351273407        10.190400663834216        16.401232501020459     
 H      8.4402457738696626        10.321213131433691        37.563072420706973     
 H      8.7279794812171545        4.7828971516023469        39.927418693908351     
 H      6.1811604038948653        10.126538745750942        27.839524257539505     
 H      4.9773180954546516        5.9727903941946137        18.828685267486119     
 H      5.9921399347692663        4.9481591919077736        28.677889179553063     
 H      10.474466514989087        7.8085904151922110        3.5877105494123755     
 H      10.415863376558145        6.9727017483002767        36.064391579273845     
 H      5.2879387065176111        9.4789468284131928        9.3512376312493135     
 H      6.0357346371909593        4.9007831450103012        22.462024410278172     
 H      4.8017796903712382        8.8067477210583931        38.697362158854446     
 H      8.0898150262510899        4.5930720254675634        11.790943351876855     
 H      9.9456426984052424        9.2229518846510263       0.70989546247916202     
 H      8.9645953068108089        5.0778308486687038        33.869359851402564     
 H      6.1797465133313283        4.8169403132832516        1.6908218193508711     
 H      10.204635468770157        6.2797210570067463       0.11300501535498302     
 H      9.0071898635556700        4.9210033742120141        15.869009669427964     
 H      6.3033185811194574        4.7591998593951308        30.027861034868796     
 H      4.5967539934111148        8.2059833358819887        31.332676273810716     
 H      4.5106793317386478        7.5464877708636511        1.5247430967673754     
 H      7.4423242676142909        7.5352078913464684        11.472512267565286     
 H      4.6503999708688522        7.6989652012208731        38.399550413502013     
 H      10.059006971347062        5.9412082903954184        4.4895823831102071     
 H      7.2753634387997463        10.482264538101628        38.360617426237681     
 H      4.7754378749935755        6.3617262224461646        21.191757669626714     
 H      10.465180247483778        7.8275111345173691        32.843030995603804     
 H      5.0250596132475271        9.1856790377531965        19.999826367156640     
 H      10.401262941381583        8.2134560728332477        4.5630473432812408     
 H      5.4488590974601534        9.6470743688733513        1.9052081043064735     
 H      9.5915123347462306        9.6221896105440976        34.227524248424125     
 H      10.432042701145011        8.0165003280308085        11.508347693574141     
 H      9.6468269378995508        5.4204092638732684        14.602683460907668     
 H      8.0992258479562107        6.8283069128048126        39.196882224289418     
 H      7.3681794230998303        4.5990346991788060        21.045791316128277     
 H      6.6794401615661076        10.352376357658201        30.793392082170040     
 H      10.138890851043357        8.8595879682663856        8.5459774942076159     
 H      10.138116553932894        8.7529533071038230        29.971391738863403     
 H      4.8795586854952582        8.8588637946739652        15.456852684961111     
 H      5.6008215504278089        9.8177275527921619        33.858728600771734     
 H      6.6877755014193809        10.379256141569778        4.7025698069456316     
 H      5.8542988315903246        4.9990061837084747        37.583005962686194     
 H      7.3983547757154522        7.5318696679480128        33.111085561390226     
 H      6.3987894991426302        4.7399736324627062        17.995415233785188     
 H      4.9917845780829149        9.1071312148900745        19.002455186574839     
 H      4.7302483298061277        8.5316208123551771        1.8679786479166791     
 H      7.6820399407942839        10.475826846558929        29.671660518566689     
 H      9.8994079514358386        5.7710801707608255        33.281401740980485     
 H      5.1933570203025887        9.4097045992091015       0.90300689897886388     
 H      9.2701318924661660        9.9169537187223984        11.251601531218101     
 H      5.5024672474757761        5.3474822551515704        31.768688522610134     
 H      5.9875927056915685        4.9569281453005223        8.3247812801188807     
 H      8.6082659368219439        4.7619141473691480        25.369422298610587     
 H      8.9694228761924713        10.076430692791732        19.414124723704735     
 H      6.3440386807294082        4.8364630545113929       0.61424721729723342     
 H      8.4441142808919665        4.6644484887271505        35.925752289028438     
 H      9.1647288779514469        5.1084612427395744        1.6022526350318951     
 H      7.4342012553397314        7.4994852759196728        7.3295798526223095     
 H      10.433877043396956        7.6485437915124415        15.542208457076343     
 H      10.361516783557411        7.1853671018262437        26.697114303335759     
 H      9.9561642947206401        9.0399084340972102        36.543409550497465     
 H      9.7637431962077432        5.5414936354199522        15.634230579649158     
 H      4.7143721000812437        6.6340108422974922        12.474484718424831     
 H      4.7286750110665015        8.5176974760790767        13.292593272092240     
 H      5.9004701213515309        10.037904082569423        5.2660674134154961     
 H      10.478294136681184        7.7690541654722383        29.670336563214036     
 H      4.6646677097759808        8.0789675876712650        30.296247474202932     
 H      4.5909585184916528        6.9190312250877959        24.517760657149207     
 H      10.394887953388658        6.7928815109933964        8.5922540910885061     
 H      5.3573990259489426        9.5908184156436196        23.379308211310835     
 H      9.4292171943988183        5.3391379093146201        25.843009614898598     
 H      6.3168243984592651        4.7490061983490213        36.469676276787091     
 H      7.1430775603708536        4.5757142819286090        8.8084435270441652     
 H      4.5484717677130924        7.8451123263954878        8.0828265010426623     
 H      7.4548139571130152        10.439242406346827        15.714600403598091     
 H      7.5750903614131264        7.4948613029374105        13.513215137700996     
 H      10.488766906646704        7.3189853493458505        6.1995229886308900E-002
 H      6.2806459688672085        4.8158367770407819        9.3268524577980063     
 H      10.239478735156249        6.2858152128978055        21.927400534161730     
 H      7.6124518675084518        7.4595019623963106        27.955053549539841     
 H      7.3060636641131183        7.3559745522283002        3.4587449261059109     
 H      10.151946961533236        8.8550350106697433        3.6806799748867736     
 H      7.4486095676666846        7.5275086458211087        14.544072128064103     
 H      6.6674856701322760        10.361549806256916        5.9074474081939599     
 H      4.5041746209580440        7.5735844254800915        27.903089970132143     
 H      7.7541963065626733        4.5137865367196035        17.615610679078291     
 H      6.8360507822571286        4.6035259914519857        29.168796377894751     
 H      6.4093144192066109        10.263588002547488        37.170811982114103     
 H      4.9994675812666882        9.1391350854004667        30.534176422583993     
 H      4.5110761866676832        7.7241735108081961        12.271198988762299     
 H      10.338699721493207        8.2592826794875869        26.681426943985656     
 H      7.6849418993469829        10.493052182950182        4.7140779258046708     
 H      9.4627835776443625        9.5394400999802329        15.678655204869020     
 H      4.5157168060070561        7.3033176244961497        4.6107360835077937     
 H      7.6259049940898160        10.450303737987733        33.771904307720241     
 H      9.3752389481988700        9.8413224732923279        12.297779898982210     
 H      9.1975817045579653        5.0955769690223311        26.856330243479086     
 H      10.309471639538527        6.7437051558970156        29.736877647047905     
 H      4.8011143495412645        8.7680621749661398        23.033787140325771     
 H      10.292357091317646        8.5953936990686017        7.5475771550401811     
 H      9.8161370573329787        9.4061169610390891        4.6776761367883024     
 H      9.7522436240099157        5.5635009597004093        7.6189732434725110     
 H      10.242407514211980        8.4534318605354279        18.772567827956806     
 H      9.2176750482020040        5.0520690938471571        29.014624432995166     
 H      7.1607754152703107        4.5366122192095322        33.055891400381093     
 H      7.9835187390071329        7.6870713684292191        6.4366397524201862     
 H      5.1338043666314208        5.7007468470008353        12.094382677180688     
 H      9.7451719976240927        5.5394086913486262        29.846848461204779     
 H      7.2073590897533668        10.416479265196333        1.4476580018199250     
 H      7.2910501980438234        10.492030501155972        16.743840814805292     
 H      9.4361634771708243        5.2328687825157312        12.442205199883864     
 H      9.2476530671035881        5.1779393766011976        4.6255693999353049     
 H      7.0408561235644047        10.372190095166722        26.337365511052511     
 H      7.5887079121393377        4.5309675719252276       0.35584065439855900     
 H      9.6803975518277170        5.4585648592071818        17.865702505776962     
 H      7.5518542675986131        7.5727021334587752        32.122983580107871     
 H      7.2827134154129691        4.5693996759380644        4.7568640685998709     
 H      10.030890084426886        9.0499471627361121        12.680613609824238     
 H      7.9610413284663410        10.460729418819241        19.031505464810994     
 H      8.6675200195809197        10.233489397671555        34.111012577051000     
 H      9.1186100185480310        9.7944044597468860        3.7816004834682375     
 H      9.0985041392308847        9.9041280493025283       0.71825097204291455     
 H      9.9324547504215204        5.7653949045760156        11.607666806826479     
 H      10.438856146882395        6.9680117280341163        1.1544642286276252     
 H      4.7295139211011952        6.4379409163898877        1.3071242969223775     
 H      7.1038581655462556        10.462020365838269       0.39720319342979010     
 H      7.5079769528161995        7.5326505450649410        2.4836998128877403     
 H      5.0046682831790790        5.9098591752312677        25.266759504451478     
 H      4.5330729807427099        7.7794985202301934        15.279539484953933     
 H      4.5569286245190179        7.2419856164562502        5.8098017996715399     
 H      5.0264327828454869        5.8217872836154827        39.108326680011224     
 H      5.8427789622680280        6.7454912521241051        34.841906237445890     
 H      10.168180423121424        8.8554416049464795        33.415037191629125     
 H      5.2995545280667464        5.4760541461234329        21.920150112683181     
 H      7.7577397565370880        4.5632492888131653        29.592341597688264     
 H      7.6903756514177566        4.6113296778305966        26.042832419903963     
 H      10.367726611225343        8.3601778348463505        14.763214560735388     
 H      6.7182998038869535        10.316174690114281        18.683142670280496     
 H      6.4448515755684808        10.261126729565095        15.395635128138622     
 H      7.1235719968292761        4.5989356898374574        12.216886647782497     
 H      5.2588079329898285        5.5114947883821319        2.0913522646156215     
 H      7.7352668254319807        10.424894309848259        30.691789830920076     
 H      5.8400219075660793        5.0058731173812205        14.971243195031537     
 H      5.2016340379527923        5.6794083056164038        28.384585870423390     
 H      6.3558516062091632        10.248613856193632        9.1694384853933126     
 H      8.7267816582989859        4.8110817924141926        18.361259258123372     
 H      7.3905528974681465        10.448106647879978        12.227540211342660     
 H      7.5887102326807190        7.4664017919763257        35.126625954353067     
 H      7.4837013604628604        7.4597659363900339        19.812765653890654     
 H      7.1261525518729680        4.5520763109717901        37.308755930428468     
 H      4.7599901834572149        8.6553592479013179        28.280982316117022     
 H      10.091922626701503        8.9652488086175808        11.583836309965625     
 H      8.8883619789071808        10.156881503061010        25.903922028118714     
 H      9.2545425576491720        5.2099657979649896        36.922641687864655     
 H      8.3971593289083959        4.6501235862845123        4.6262024747514987     
 H      8.3719070695295397        10.350384301233468        1.7162794335250091     
 H      8.4354734759897383        10.283790390455605        8.3714233246985064     
 H      6.7410844899241136        4.5996474039534894        24.716261806515792     
 H      10.260166995400859        6.6814225029205154        3.3566727495486210     
 H      4.5196873795024564        7.3432792211283235        32.147774678913748     
 H      8.4212531136528952        4.6950623829654736        21.625828486042973     
 H      9.7138777449403868        9.5205638974996454        18.761528814497325     
 H      7.6150830935646248        5.3955533090194825        32.650576578409726     
 H      6.2783304139416654        4.7648294859632321        4.8643862244332539     
 H      7.5102414506476043        7.6330893993061890        39.373510226647561     
 H      10.323410839192791        6.5968171404877740        15.148528289235001     
 H      7.9833616258267508        4.5501852637421294        15.301398757993134     
 H      7.6103209855712439        7.5067280714820619        9.4804579075811919     
 H      9.0828394001089912        4.9546027916202471        2.9608509901716573     
 H      7.1519002555051898        4.6205966178413975        1.4460924040328189     
 H      7.5166526945491663        7.5601008318199119        17.790950405952952     
