          56

 H      7.4127989758208654        9.3884358771866250        12.034988223587163     
 H      7.7463168778564775        9.7592704629510312        20.821349488004849     
 H      3.0620979876420162        6.6893479659789650        9.9175865851103104     
 H      8.6327177321035080        8.6751317393443657        4.0721490865783236     
 H      9.8975100642366467        6.2503397440665864        6.0610252018734858     
 H      4.8340260211570412        6.6998924181063986        11.158084802993626     
 H      9.4676211854534387        8.1545670564617954        39.903109755317757     
 H      3.6835188985581788        4.8911313728727359        3.4301222171062591     
 H      9.5836575839459233        8.0273498910014425        18.064913398199888     
 H      9.5973246683568441        4.8749276256562215        24.109855702386014     
 H      4.0994642929278466        8.9612265100302313        39.858253565874989     
 H      9.7583493079921499        7.5665380837021194        35.607331941159416     
 H      3.1549896500361565        7.5078116070391463        32.584406755472635     
 H      5.0475766325749296        3.3157252339682253        22.842325511677661     
 H      9.2311976164673872        4.4696696660873192        26.353519379002851     
 H      7.4074282608173592        6.2068412083197515        5.5042256741063884     
 H      4.8004509730977194        6.3909503377842558        15.374340116633212     
 H      3.0877247771724377        6.8585990406401880        12.193847739404511     
 H      3.0260393404438650        6.0769004388246950        35.252680248175359     
 H      6.4955731010278086        9.7967641840855428        16.271757569261752     
 H      5.8921923613459315        6.1948496873644565        10.674109448145520     
 H      7.1021517851233416        9.8635376122690737        3.1669156227658779     
 H      6.3107713685462166        7.2281626623026662        26.913637884871154     
 H      8.4568896714797006        3.7346329851378224       0.98253014879731648     
 H      8.8947844161051517        4.0379304421493991        17.357177692551637     
 H      9.9292439065711431        5.9478092900706141        28.294561091323338     
 H      8.1449481709176990        3.4177100170119141        23.912739958662346     
 H      3.6366726160459528        4.7579041888850968        11.842361857152525     
 H      3.4338193263474741        5.1504224045255134        35.583670569108996     
 H      4.7038776198157679        3.5021978346575477        4.8171780106554429     
 H      3.2930717086087977        5.1247985220527354        33.235840259669480     
 H      9.2877740889908598        4.6085321935390819        12.502384405971188     
 H      6.6713713574753521        5.5099580585007297        24.432556550170137     
 H      3.9231507906552103        4.1434290612543041        35.968464242002348     
 H      6.5501112663717969        7.0031899968794011        30.670666298824283     
 H      4.9701623581221304        3.3778836965058376        11.018986678351103     
 H      4.8162092289846576        9.5538814124122631        21.414635888365432     
 H      7.1035329167570973        7.4946346340824617        9.0689506948515852     
 H      8.0044129653453311        4.3210308260127839        6.8123155210274504     
 H      3.5061057644128892        8.2801463033155649        22.724291090868714     
 H      7.8766818300499564        3.3318097095442525        5.0277965323752776     
 H      7.5030355980738799        7.6821751743065576        17.166676016376382     
 H      9.9167070120415506        7.0494301349950979        28.473474560632287     
 H      6.1278901024172310        9.9302192388637032        9.5952768365374830     
 H      5.2531737566028873        9.4688579911191955        9.4099156677536051     
 H      3.3308810155094513        7.6919763549166733        10.220129858511507     
 H      7.5395283685479058        6.6679384532389356        9.4321853511997915     
 H      3.7107059432272624        8.5679871656390638        20.034527748435575     
 H      3.1160569367521598        7.0756292601320583        26.981560526116741     
 H      4.4364648966697402        3.7747807682984740       0.64472044912261905     
 H      3.1380359092616756        5.6922850990504603        7.5859131695473696     
 H      9.1173843693943208        8.7228249471534554        29.417494362133095     
 H      6.5677689933882570        9.9731030587220140        11.888767488479061     
 H      3.3693655543428207        7.8689707846902257        16.422761040038381     
 H      7.6708783877967024        5.4093921966585343        35.867087278101586     
 H      7.3874899190435457        3.2225900840171313        38.920478187654929     
