          75

 H      5.6239177210442506        6.2486187581530732        18.237881121211998     
 H      6.3645267836505273        5.5290916119692017        24.435873346776759     
 H      6.4378367725136014        5.6785164558730177        9.0978349079329686     
 H      6.4745666954595800        5.5142499522960557        23.361262490900426     
 H      5.5434020815959446        6.4852344114704854        38.119175231221696     
 H      5.6908365651150561        6.2892428992088174        10.170352499174291     
 H      5.5788836054791275        6.4443784901004753        7.1490905459003953     
 H      5.5005293329107241        6.4979576672912156        27.510868918573042     
 H      5.7105227375540331        5.5373193796027467        5.1470037330931868     
 H      6.0906411589613141        5.5681181569500682        11.119297161945491     
 H      5.6035122414939158        6.4036024029642187        4.1431806216564908     
 H      6.4995736799386483        5.5218967426077157        27.051680606457229     
 H      6.2500367236197460        5.5800758339899685        1.0207645528569345     
 H      6.4333724515298698        5.7498085615867387        34.611473335753459     
 H      5.5172915386344874        6.2680648291902417        21.276169588730419     
 H      5.7925425997392805        6.4547842565049702        2.2388054666413235     
 H      6.3867202286488398        5.5352129815309103        31.224668399415176     
 H      5.7070693239484305        6.4745336207567634        1.1346781827434511     
 H      6.4971880531164627        5.5176845779922941        35.625024735226845     
 H      6.4700827320419148        5.6931573128488990        5.9671830375624770     
 H      6.4185593292552863        5.8152846195065022        4.0430922592051290     
 H      6.4936165956600416        5.6008647372604106        2.1834727204816442     
 H      5.6435464573959759        6.4802877098441369        34.638985528443669     
 H      6.2558351731445025        5.6928453028782116        7.0748486172080298     
 H      5.9154737269412072        6.3345720961999064        26.605398251688815     
 H      5.5075276030666860        5.5069922400095583        20.106015510529545     
 H      5.5755755104774574        6.2832792737929184        12.195114411018979     
 H      5.5470548952137628        6.4975195273360029        20.253555271368359     
 H      5.5577414222047929        6.3569700593791714        15.197437933828159     
 H      6.1384562195738912        6.2387797201430164        32.287108274213786     
 H      6.4225402319430582        5.5339395110799963        12.119513980914970     
 H      6.4422128528076712        5.5316128719375346        14.128541471149425     
 H      5.5869134169672217        5.6550453449832787        37.540124912891635     
 H      5.5836980265154788        6.4931159734111175        9.1218033340802585     
 H      5.8935270398015271        5.9111133252071406        28.277682423457570     
 H      5.6519940906586843        6.3903315315273321        14.189889641388307     
 H      5.6687099092790563        6.4689240728873756        5.9294641893215898     
 H      5.5334174952974564        5.5141175983554502        31.758598614619359     
 H      6.4555929958012888        5.5372566357855426        19.256522218959827     
 H      6.4200681148677869        5.5868724665706715        18.133968119379734     
 H      5.5608423044762407        5.5929957224196194        34.133840547073270     
 H      6.4683611803964061        5.6355996318687085        8.0794474367850526     
 H      6.4147310756211979        5.8950171639352353        20.311203191094481     
 H      5.5256958292413803        5.5568357773322656        30.712850185065829     
 H      6.2785930017674492        5.5196370980177853        16.136793121907392     
 H      4.5086603466100135        5.5992672554936656        38.447518524598159     
 H      5.6209691364352992        6.4526256515068585        24.283211964506034     
 H      5.8985648884775177        6.3899320451705064        23.269621154426765     
 H      6.4333162072455581        5.5381533120962763        13.120262143015230     
 H      6.3368180797276796        5.5190445675979634        10.094216749557127     
 H      5.5051725771811197        5.5072352736777033        2.0167944741091275     
 H      5.5624776497706980        6.1087688178765145        8.0985359054365489     
 H      5.5519552483215033        4.5031998577780934        27.540120658241026     
 H      6.4425797504800366        5.5551164591920186        30.215437121697413     
 H      5.5228740728827299        5.5135342566659675        27.325716559956785     
 H      5.6881372182177286        6.3252826732950984        16.193976828489362     
 H      5.5234293450885694        6.4824887270695424        17.204470617239313     
 H      5.6025905560113074        6.4746603949867874        31.216563884364163     
 H      5.5106792792212476        5.5192341791092820        6.2222045049441377     
 H      5.5069533748398642        6.0019278794205837        13.187100795724273     
 H      6.4509172203809371        5.5959487184269667        39.119583392835018     
 H      5.5154197799682905        5.5396485410848646        23.707254138913534     
 H      6.4923790318235826        5.5287243651070259        38.028201467404379     
 H      5.5089337516053050        5.5582293473241560        38.674526093574173     
 H      6.4073119737075537        5.8922507576062433        17.119596190363119     
 H      5.7265364409228656        5.6168250129835613        3.0201281015003545     
 H      6.4253142646060022        5.6700569812890933        21.312822068800735     
 H      5.8874138115967742        6.4209326921328840        39.064118599333327     
 H      4.5237616353483476        5.5405633988856620        24.064292110404477     
 H      5.5629309834373784        6.4443581717079050        11.171151254937062     
 H      5.5696711836928241        5.5034664831049884        35.153828228554545     
 H      5.7895810617400789        6.3618743835596723        35.732441753488146     
 H      6.2447917609171020        5.5366020656305075        15.116651370062396     
 H      5.5703218346450871        6.4110092853774061        30.193651294959000     
 H      5.7001442001364655        6.2341992298963564        19.282490834535057     
