          87

 H      6.2512693115408275        5.4457829373165829        22.402855172746587     
 H      6.4971819437272398        5.4590999702798131        31.723074165719428     
 H      5.5283111461053824        4.6067445396606539        8.1401490905808540     
 H      5.8709350186095639        4.5734788313787593        34.794262207414867     
 H      5.5470504149071598        5.0335803287966296        23.408720314667629     
 H      5.5095711417931241        5.4938049806721025        31.890876812061052     
 H      6.4107793843302083        5.4237562678978124        6.0589775794947851     
 H      5.7361602759567889        4.6370578305074934        11.147235538385251     
 H      5.5479288217750584        4.6940506827317670        22.447008804171197     
 H      6.4880205646744828        5.4730784786044966        18.327778079732777     
 H      6.4779812524261455        5.4856624456799628        36.837141439782386     
 H      5.5231559620036803        5.4938155899304650        12.982589021221534     
 H      5.5207390066717750        4.5315972634046249        2.8858600712304399     
 H      6.4653741832004892        5.2883169511861219        8.0614305884266173     
 H      5.5017811054093855        5.4998986023836638        6.8963881952312480     
 H      5.6096262646007737        4.7594291921013410        3.9478972616492860     
 H      6.2203916451418326        5.2968447076489165        33.766260776110173     
 H      5.5659860578862155        4.6229483107952856        21.398121337616548     
 H      5.5198118335005448        4.5217390776807536        35.810355720624592     
 H      5.5213257433964875        6.4855139137953861        27.979882683679094     
 H      5.8542799641848990        4.6229495684016788        18.354193603857695     
 H      5.5354323398822425        4.6252172920755754        9.1542504499973010     
 H      5.7120860816449115        4.5287523149832118        20.402511944642956     
 H      5.9299818719778026        4.6078363838376095        24.431143181015369     
 H      6.3801586288881778        5.1183680718228617        25.423531325552286     
 H      6.4456659656121031        5.2232608820175264        27.635118200771341     
 H      6.4657361410176204        5.2626413868386432        20.390678138959935     
 H      6.4945770323965801        5.4896755662605790        10.117173846077828     
 H      6.3278984716078170        5.1792397910392305        12.186279465498705     
 H      5.8824788815610178        4.5915158114709840        16.303249460288264     
 H      5.6344586427957140        4.5721652841338569        27.655558299522244     
 H      6.4745643028170976        5.3881610993465827        34.812571242114132     
 H      5.5002175384876342        4.5420518287290728        28.694030344571885     
 H      6.3319083075104308        5.2188978938116506        5.0632131147431663     
 H      5.5477566233609927        5.0633219869683881        1.9761269500706600     
 H      5.9527153168406857        4.6214676857921271        39.913445439551680     
 H      6.4459416187180789        5.3758294542768414        3.9287674202889180     
 H      6.0372755852282598        4.7353067472775905       0.96331418278454461     
 H      6.4447562788542188        5.4327307273209007        11.119044357767560     
 H      5.5488125617576243        4.5303687939038211        38.938238458782038     
 H      5.5913417657404461        4.6005712489763164        17.269525252832327     
 H      5.5414363059784559        4.6296393771935271        37.934640076363173     
 H      6.2790652714773927        5.4573761875174309        32.757506183889099     
 H      6.2602533248333856        5.4333971541777455        19.401902841498483     
 H      6.4996650594238243        5.4943670906737028        24.475631565982759     
 H      5.5000007752242679        5.4991239157664360        30.830340787069460     
 H      6.3867903700962447        5.2822735700526078        9.1340165423380721     
 H      6.4820266269155828        5.3325169206608649        30.720701206304099     
 H      6.4367504860496698        5.1543954742200295        15.235192605782480     
 H      5.5091540279267530        4.5111739422036257        31.702042593122997     
 H      5.5190275978272760        4.5147939192743145        7.0879993103140677     
 H      6.2527951112122118        5.0409444295596515        29.777469452922176     
 H      6.3932828199415201        5.1077760320102472        35.812486356273951     
 H      5.7572054470267044        4.5459035515250896        30.656583114499941     
 H      5.5083552007772356        5.4916829575368817        10.379602321024381     
 H      6.4907829094390728        5.4870864814198699        39.976497395450558     
 H      5.6587470248726941        4.6078757970453683        26.588032547258205     
 H      6.3865596496003185        5.0698569953477595        2.9545022239626824     
 H      5.5082963002581522        5.4879851149807992        15.433271368829255     
 H      5.7778060407983851        4.5464744249495004        13.268954992195752     
 H      5.5744722194746057        4.7420856839001697        32.728756651897115     
 H      5.5075167877137918        5.4912405595163758        24.660515420729670     
 H      6.4930774804670595        5.4998934488219113        13.297045504232875     
 H      5.5107028685369261        5.4927770544674024        39.684418008073713     
 H      6.4722939230351111        5.4697903689175620        23.403337674480170     
 H      5.5786452439808922        4.6775413919744562        19.394212666329192     
 H      5.7929456928877290        5.4853181054380276        28.416721644053332     
 H      6.4945548882347799        5.4635591977005493        16.344181381209211     
 H      5.5007181547931969        5.4991753971717223        16.487446848580817     
 H      5.5523961723915374        4.7496681938798186        6.1059737245603198     
 H      5.7398880550666487        4.5478251089170314        10.132261421243745     
 H      5.5222392172506236        4.6008401767911078        25.497524944215044     
 H      6.4744519894375197        5.4615773783500057        2.0335078521037100     
 H      5.5140542762831828        5.4878556798888747        20.135334699542138     
 H      5.5008628010340344        5.4985805238373056        36.081148909059998     
 H      5.7095587356976010        4.6186747450456735        36.800502415451902     
 H      6.4299169092513999        5.1570412039736562        7.0646941460909005     
 H      6.4138868846277308        5.2309267240016810        21.394927378628111     
 H      5.5041004760816223        5.4876609060813770        35.059879554118261     
 H      5.7805453878728148        5.1519455937659249        14.269168281401921     
 H      5.5080438222678145        5.4982906442933928        38.671436698009678     
 H      5.6229442711469853        4.5082178893053264        15.247806640311433     
 H      5.5107925498788752        4.5089825685204774        12.240620762899757     
 H      6.2423362154069908        5.4677651389077528        26.467819985632055     
 H      5.5086170384070758        4.5839391058039283        4.9455308426455833     
 H      6.4714995371779924        5.3572223015487275        38.920432393314726     
 H      5.5132184880744513        5.4941062843354898        3.1963511897292980     
