         157

 H      3.7923302430998755        3.8805684887439114        18.199347504034940     
 H      3.5191410125849152        6.7812926653606072        29.100791438730351     
 H      3.8374535046062506        3.8202740431846833        12.147484688276577     
 H      5.6915419245434054        6.1397679554552891        17.161809392826768     
 H      7.2859753149457864        7.1941799682572425        8.8164603727126796     
 H      4.2333023546218653        7.6139022223266029        6.8339871912065631     
 H      5.8197915885096982        5.6857313033580326        39.903573530144655     
 H      7.7335132473090695        6.3577960120436892        11.073757806022270     
 H      4.1548077865471083        3.8826267929856777        24.548816358445691     
 H      5.3238974529163183        5.5012263552256995        11.219004306113705     
 H      5.5699190083858108        5.6928350981117477        13.433436929290131     
 H      5.7902591288734770        5.2322824714143374        2.1119652991581108     
 H      5.7127482521754036        5.4453112983930509        21.094929817571305     
 H      5.9132699532164956        3.1150505442307899        30.865840107119858     
 H      3.2965667820839943        4.9651033638233182        4.4325293297157495     
 H      6.8929577630727481        3.6258987522198454        29.143023718737226     
 H      7.4320858277915711        7.0108555378881192        39.788375871535209     
 H      7.9484638830012120        5.3842165753226254        28.679830954564913     
 H      6.9754471851360567        7.0258657922040522        20.738416280534913     
 H      3.1079769026368029        6.0916037009509454        18.996079315024570     
 H      7.8007561957828884        5.7783470585669763        7.2893159095960751     
 H      7.7048867397635670        6.2458319287891522        26.784215495611043     
 H      4.6231902207250295        3.1654794227623020        34.798545821882506     
 H      3.9891970709611506        4.0751636204854575        6.2779870341060811     
 H      5.3749153926134818        5.3392155520737434        4.0968671432182084     
 H      6.6422568511849782        3.3115042106809316        21.389440809284263     
 H      7.8149052203976606        4.5930229551832964        36.291270864847341     
 H      5.4919791019166544        7.7459944819803326        22.154782089888524     
 H      5.1312808956987004        7.5491532976485543        8.8296893789320521     
 H      3.5094910950585367        6.2144320303155371        21.028738246146524     
 H      7.1808454832600468        4.0622265619651134        13.711744983015645     
 H      4.3479020867735496        7.5411890532195427        17.915118390416701     
 H      5.9469291628251408        3.1448983679138003        5.9338532851975909     
 H      7.6621209900803846        4.2532683761006185        26.956245735003183     
 H      6.9337686225104429        7.3675261224598847        14.932651896700522     
 H      6.8893994647765551        3.4350372772269915        4.0396587292412320     
 H      5.2265843753050163        5.1587229667917649        15.331022912020840     
 H      5.1566908944391336        5.5646330568619113        25.945625376060928     
 H      4.2456179413967394        7.0965500425372801        23.695527123442979     
 H      3.1180339707095031        5.4916519239905410        22.980312514200399     
 H      7.6723862664580471        4.5421654333564625        2.2813170331978938E-002
 H      7.5864248076848204        4.3566315145725891        11.708239515679518     
 H      4.7459396164765550        3.2674627701075405        28.663069513307171     
 H      7.7536504415741101        4.5799320908437728        5.4819121845231784     
 H      5.5021966834527829        5.4099634117600397        37.912033857523404     
 H      7.8239901972467436        6.0804903508885344        19.106247143651863     
 H      7.5289446474544119        6.9008408160860704        22.756412716260289     
 H      7.8776929030900922        5.4614170673899229        3.5701877489315583     
 H      5.5818810243346277        7.9290714840586061        35.744497678364986     
 H      7.6958370372242486        5.3944697589743464        15.302918991331332     
 H      3.2607620550110683        5.0272171995649426        10.445195069140549     
 H      7.1463412746789201        3.7218464668467353        7.5526390172731679     
 H      3.0665982525146234        5.4725162502425890        30.989162850270180     
 H      4.0997402290788383        7.4006535582889628        31.572715068099452     
 H      4.3492798908893953        7.4903900472146976        25.662113936541669     
 H      4.8435980858992513        7.6264919716905339        27.830629068150028     
 H      3.4730467692250935        6.9158589643420427        15.603987555435680     
 H      6.7080694741925839        7.4307681323942427        34.049681674592726     
 H      6.1799641516461241        7.8522668717000634        31.706784945472613     
 H      3.9192248921281352        7.2501677549284294        1.2225608303597444     
 H      6.7592666763701157        7.4710561444349217        37.915020672099615     
 H      5.2928996194559144        3.0580420011467786        7.9925359400742071     
 H      5.9707895514614586        3.4035582161225193        36.297087846178286     
 H      3.2598157532318486        6.2181040326587631        14.757942393838896     
 H      5.7673307471370983        5.7223381472652761        23.894644817706045     
 H      6.7861151086530942        4.2781375082127351        19.437108261686788     
 H      4.7154016702508770        7.8416741639567418        3.0899973549537205     
 H      3.2125689779296116        6.1623549822862476        33.235628894550430     
 H      4.6045737591825384        7.6763046557880870        19.932193701413308     
 H      3.6419444384251642        3.9381718451050225        26.595206136594104     
 H      3.7709833589193487        4.1389627527003245        2.6265095882887315     
 H      5.5679400383968076        5.9746322790055810        32.032503560301095     
 H      7.6233386083450059        6.2063618091604313        32.365361898995893     
 H      5.2029688749605141        3.0868716594047916        32.737545541007243     
 H      3.1131874756677944        5.8584355549692244        12.401818308914018     
 H      4.2406904579097677        6.5044955023547635        35.301725812931032     
 H      6.1690298744100973        7.6274630850956822        10.611319213268890     
 H      6.5417658860681263        7.5564617236251790        18.435311647596532     
 H      4.5216726543636536        7.7951761648142037        12.170452698631054     
 H      6.8341611658530237        3.4827995618463081        25.054691892192917     
 H      5.2912207643784548        4.8743521846580879        8.9523830664871706     
 H      3.9161911810642325        6.1662040520472079        39.279730555059707     
 H      5.0593378844017405        7.6409395546546204        14.126215652766435     
 H      7.8388643550056312        5.1409695390740611        9.2494502743377556     
 H      7.4143508745628317        4.0681171581207911        2.0019618345882195     
 H      4.7236708677184245        7.5952326671946215        33.583941211523111     
 H      5.4920534238560581        3.1003133426530032        2.5026447447886171     
 H      3.3966885038983676        4.1545579377531165        38.860094257247034     
 H      5.9244459292214895        5.5057405109402113        35.886122973924024     
 H      7.5449933221837551        6.9105163848611406        5.4054201581477335     
 H      7.8060836498610966        5.1352221567296299        21.123713063289944     
 H      3.9436550375809634        3.5716550543715289        36.720800533991095     
 H      3.6822608058353512        5.5561978084806727        17.100585654255454     
 H      6.8511800408430927        7.3390488030076835        28.312128186370121     
 H      5.9915730343936460        5.2468478140204020        6.2651620899448961     
 H      6.5718903647104456        7.6146905147422164        12.659139994071515     
 H      5.0637442880780847        3.0724225267733285        38.512422173771341     
 H      5.5235644907104584        5.1996222742703528        30.123812664769599     
 H      3.2153915207832671        5.3206694273638826       0.95791927989359060     
 H      3.3186363098145213        4.6934325625018287        29.014442482852928     
 H      3.0749435680711787        5.4574496350157755        37.330551477552198     
 H      6.2386593483219501        3.1759535779347963       0.32345669699875634     
 H      5.0821441938353438        5.1446959370838750        33.829568969806580     
 H      4.5255680413395023        3.3511310452142733        10.248769859384144     
 H      7.8001862898891998        5.6923722505408065        38.037619128959349     
 H      7.3265155902766255        4.2762603541468929        23.057814746217346     
 H      6.9534222003708095        4.1025495665704330        32.537994893250350     
 H      3.4905323623216855        6.2432927528389452        8.5518011667553502     
 H      7.8326489754295094        6.2169676997732735        13.462163858876949     
 H      4.4442253800680573        3.7266070804958131        22.540040024802320     
 H      7.3185416663761913        4.6880236926101482        17.324020262290002     
 H      7.5524135366915885        6.8738177909501310        36.011176448098190     
 H      5.1634184326110448        5.8712245776218905        6.1135988756136515     
 H      6.7844929950555457        7.5939681112447763        3.1866403021060359     
 H      3.4018341766682121        4.3893328381647008        20.114474644390640     
 H      4.9501526059742789        3.1991507616288737        24.404571293741849     
 H      3.7526817059937367        7.1119659002372426        4.7918756574283403     
 H      6.1433524546224438        7.7693299652860182        24.106216791547119     
 H      3.2206046557309476        6.2927132255224070        2.8629169570510244     
 H      4.2526718827725478        3.3934234691618852        16.297472607637840     
 H      3.9771606089220821        3.5944426380135548        30.623670199733876     
 H      5.9341046142253049        7.4564289515523976        1.1875557472956277     
 H      5.1322169498911725        7.8983166027903486        39.343678239389313     
 H      6.2859037504317845        7.7783209099394996        7.1311184096076694     
 H      3.1332874441509362        4.7870479769618273        35.165727805780698     
 H      7.6598231144385194        6.6958393758954058        16.998543494780865     
 H      5.8258081658478487        3.3100154672831636        11.837434247467437     
 H      6.3796904945282913        7.7616264718104295        26.189385735159227     
 H      4.1945977714548945        7.3062282263810516        37.430920660334252     
 H      5.8996559252260550        5.0198095127481013        27.951486586109677     
 H      7.7730069325616489        6.1368387616763300        1.6071791791470824     
 H      4.4976618889329165        3.2229446572815319        4.5110978950017140     
 H      6.8547091617548217        3.9318422152437127        38.119902749787919     
 H      3.4292611713310226        4.2409619364818285        32.589874679707378     
 H      3.0544004158961808        5.8701137092360014        6.2928399394479646     
 H      3.4933249775023305        4.3119595801195567        14.056485021141590     
 H      5.7467417568947834        3.3047868529666209        26.739390587026552     
 H      6.2103795605080183        3.3702845761301177        15.708146412019069     
 H      5.2516225030923183        3.2596973118762098        13.864681079322544     
 H      5.5210126121562029        5.5768348338021951        8.1984060856422829     
 H      7.1864734320198620        6.8988295566567608        30.236608595195513     
 H      3.7733455432983267        7.2185323204190643        10.404792806116049     
 H      7.8003134594081276        5.8470134229794324        24.522038938123227     
 H      4.9923118599639613        3.1492677057541005        19.795528402292138     
 H      4.2843436232153866        3.4601179222850376       0.81639031342467416     
 H      5.4915337033890737        7.9684977092316753        16.294794326555429     
 H      3.2595619127078428        6.5688788232792534        27.081460445266032     
 H      3.4579661928743342        4.1022756247288630        8.3658824788972392     
 H      5.3599232323003694        7.6097378511033540        29.765129499436679     
 H      5.1817610390958047        5.4661529968732454        19.110903256682256     
 H      7.8114693191978084        5.3694400440017533        34.366116705184524     
 H      6.8475691626387087        3.3968223694470363        34.437083328782109     
 H      7.6835103078452995        4.9834298530685261        30.765836222951794     
 H      5.6672362056593863        7.9890269395773643        5.0958513327343340     
 H      6.5667489732713813        3.4938787082883236        9.8948862060822194     
 H      5.7980944394169365        3.3649895515135873        17.826729786776045     
 H      3.1674275071983051        5.9632663234492789        24.944071763224663     
