         201

 H      6.4898497521209020        3.0361122253912893        24.327312349952177     
 H      9.4898401378831689        7.3759854436549546       0.18004731661924631     
 H      3.2959173785558495        5.1529178886890348        39.881640230080009     
 H      7.0610748483450951        3.1958818422615116        23.378094487378757     
 H      7.9164474484897651        3.3163257941724904        9.2908708055432569     
 H      6.1954454949599871        4.8140675220569724        15.098184650461137     
 H      5.1564398531701192        7.3418758352465208        23.937298091663500     
 H      3.1133039567681102        6.7581610693450695        6.0023390249511213     
 H      3.1155114711561303        6.7133837985167224        20.704431208768820     
 H      5.6011505953214211        9.8607669334685131        6.1976159102391639     
 H      6.2440975480433210        9.9498635861662912        19.070025773838626     
 H      6.9855485224627696        7.1752254564762916        25.489808676447314     
 H      5.5629455298891335        9.8249564766023063        23.676059733340296     
 H      7.3374907959282698        7.7827863196991229        3.3609862143349760     
 H      8.2062893206817620        7.2780761471514435        3.4890017671487179     
 H      4.7259608795741217        3.5461998807664359        16.305883252155144     
 H      4.3873704588009144        9.1504887979733045        30.148363441907154     
 H      4.9549315660838111        7.2260618927615674        28.422989703367556     
 H      4.3490227359467859        9.2163326113522288        18.624642639907716     
 H      3.7364916569400304        8.6040136776742653        39.255363154809437     
 H      7.6711282448177194        5.4066442835035255        22.180931524668708     
 H      6.0393837000740342        9.9205652026705664        16.757602588751272     
 H      6.4671557591445721        9.7955629315334853        30.621004083044639     
 H      7.8858273834811063        5.4922600314480263        2.3434343823816244     
 H      5.0400598668587948        6.3968453508845844        15.510830680602659     
 H      7.2438125543058725        8.0475359462699831        7.4659693116454120     
 H      3.8536877518313939        8.6933261709719023        5.7452257770476267     
 H      5.9279346143787821        8.1797503055693266        36.088575705502926     
 H      6.7273286416744540        5.8638292125062321        6.6875980157586410     
 H      9.4627798156220013        4.6437076588738302        20.939761499008956     
 H      6.8486242572343912        3.0258560436203856        30.419980370177871     
 H      9.9392696178406599        5.9489950353323353        9.1030386190089310     
 H      9.6809869370054145        5.5856412855144093        16.399569192530532     
 H      4.0533736220792758        4.0949129807858089        14.298096250109671     
 H      4.3193019448136338        3.7735545886698554        8.2551927590766319     
 H      9.4001850482378870        4.5995157770141679        28.754589033380778     
 H      9.3148848506846189        4.5460862129376700        36.640559476091006     
 H      5.0080680778602860        6.8965726400178520        30.438572212352899     
 H      9.4952553903718204        8.2257604411804284        14.734108809776489     
 H      7.7908038502512555        3.2638873878642993        14.543515840250949     
 H      5.7250241720062860        5.1146460081149110        17.057314114634536     
 H      5.2758470088096914        5.7700495372853116        13.375909221009676     
 H      8.6616929686457862        3.7602213893802436        14.615449684056696     
 H      5.7931374304791783        3.0850803374046043        30.831663239428497     
 H      7.6171615985570122        7.7305622433824190        5.5100377171117518     
 H      3.5168497005371320        4.8884661389632260        37.801789626390260     
 H      9.2025879045685812        8.6979047858795475        26.548500963025255     
 H      6.8704922084268825        7.2027543313625770        34.069776850481041     
 H      6.9724294839648318        4.9942506984811939        17.874963470315802     
 H      3.9231202254432986        8.7623140304259088        23.035055585037327     
 H      9.3751108946899819        4.5470460349367583        14.452184771459725     
 H      9.7390825329073589        5.2299108325110986        18.937631156790086     
 H      8.2073196120604095        7.0420205476936122        5.9670027128257033     
 H      7.9249054075415239        6.4348303635629529        22.841268776775145     
 H      4.4069468676552859        9.2152216529452406        12.237812379521833     
 H      3.4700080614635906        5.9035753468595820        33.535392677035432     
 H      3.2755681048103558        5.2567967988092823        11.814179971226810     
 H      5.5812948501215374        7.8737040938549843        17.523917106611059     
 H      5.2572121660997544        5.3720834482499464        23.478238009989379     
 H      7.8060649993310260        3.4805917625101439        2.3726578741647595     
 H      3.0587029689918483        6.1239671098034583        18.374603426119165     
 H      9.1317511971606056        4.3199843486873908        12.426069108772781     
 H      6.5968984652533127        4.8903267227319480        29.287498593583983     
 H      8.2125081767908448        6.5492733776722742        37.418897958042535     
 H      6.8926673548839341        6.9379588265237162        18.856976156777648     
 H      7.5369615373516536        5.6360420512040701        27.357599261834178     
 H      9.3020918682677571        8.5832875944843128        32.490334487723352     
 H      4.9965631152498933        6.3173740798467142        11.369609265119417     
 H      9.9870168109557866        6.7224239403877295        32.204405594788248     
 H      7.5921242626554060        5.4398077692281319        33.432622531980265     
 H      5.0705439406418025        5.8783296211589908        30.248837644225016     
 H      7.5196834138944499        9.7631625243300579        33.434019878069265     
 H      7.5449389415716963        5.1553906428996612        19.871126808486640     
 H      3.8106256899243447        4.5531281378907158        7.7593376640931098     
 H      3.3477857080328706        5.1739992963874784        18.072032583976572     
 H      4.9836505135948244        7.3594320671636968        19.542145492831207     
 H      6.5478844217240457        4.2523071260286534        38.726742333119709     
 H      5.8588840623421765        5.2298182745322359        38.852164001210262     
 H      9.4975649362121359        4.8475265189198096        22.945262221890818     
 H      9.6252887170673063        4.9528135950394825        8.4181061753125732     
 H      4.0156597625916106        4.0550006071240468        4.2288122610214076     
 H      8.4027578895261836        9.3156693932516816        28.724240603136749     
 H      4.9597940492272574        7.2518897474928030        25.972527419462864     
 H      6.5829480763244828        7.9136499863461172        27.409228412618315     
 H      5.0261424417561953        6.7472438633519047        2.4835971135935808     
 H      3.2211577989933926        5.8978361002919852        13.906931205786288     
 H      6.7946411553006003        9.9719038903838513        32.733152322829710     
 H      4.9377970351255982        6.2499206126919766        19.417124906055736     
 H      5.0129982689515424        5.4946636473569654       0.86391626220556805     
 H      9.7150456678946355        5.4343151862907275        24.994370334143976     
 H      6.6957414862069893        8.1090925220742083        29.544070287195435     
 H      6.5957305536381465        8.1342547459537240        22.719944760888680     
 H      5.1000222958607617        7.4066858701243881       0.22375276463633006     
 H      9.2087080395282346        8.6104533985117939        33.538805817169141     
 H      8.6494252691274571        8.5024711746123778        22.233715593208469     
 H      5.8730219815789422        3.0601530432462556        20.449686916046776     
 H      9.9921886627342946        6.5716930246777956        20.657981185298464     
 H      3.1777785656307969        6.9077376475592871        31.788544351105461     
 H      8.1384742196924176        6.6911393546005682        25.764051868912059     
 H      7.3003884432903439        4.5225825603084946        36.266424395798602     
 H      8.0076951959777709        6.9216248398077962        23.743725777502110     
 H      6.9187622642642950        6.0628039410450372        4.6491095310543358     
 H      6.6550128229676844        3.3138581943332373        7.5905429332258958     
 H      4.3112925301983740        3.8313441750223700        26.495697086237602     
 H      8.8968579658543607        4.2832920008901700        25.510582457208688     
 H      9.8110646671853932        6.2291536232476687        4.1896402184219630     
 H      3.0502316406386254        6.4042017424472482        24.962656489942340     
 H      8.7787543353107740        3.9068833783955363        20.910532751521174     
 H      6.9407953824984192        3.0313843692765037        21.309636695741062     
 H      4.5145988827621011        3.7522925071422919        24.421620706048564     
 H      7.6426292664534357        9.7562297106201186        6.4784609506997528     
 H      9.1435030181523107        4.2733087188293553        32.771824587350579     
 H      9.1729468447222811        4.4318995376111054       0.94973543713154307     
 H      6.8890775690819792        3.0374674832741615        18.592218888680911     
 H      5.8615681133206454        9.8550431478161205        1.5267980525809028     
 H      3.0978878889402393        5.9277431891302577        31.336372707938494     
 H      5.3812300117595164        7.5031814453312426        15.427899805395446     
 H      3.1263192976413143        6.4553369626434582        8.3266424605082090     
 H      4.9754375917688298        3.3875148171233476        9.0273967249989120     
 H      3.0712849673613158        7.0212574351328838        10.350048996443249     
 H      4.2603766834338321        3.8653468710116536        34.997819953003308     
 H      3.0966665759575709        6.0930097578076561        2.0525789958673397     
 H      7.0711783252058975        4.9195619407884452        6.4354310143395033     
 H      6.7767801310083753        9.8238671358118950        37.360581349609355     
 H      8.9547503463987113        4.4543247693473695        7.8246482281805250     
 H      7.5737856529216598        7.1626748164744383        1.2231071542488747     
 H      7.3049519415748358        9.8282232328858559        26.080602662142010     
 H      7.4197472932281130        3.1657170854249510        28.433989583732970     
 H      4.4401704747623905        9.3268498120312735        25.338512708240614     
 H      6.5548241707569561        3.0360406461676903       0.57848690427785321     
 H      3.5202156774370974        4.8312531396244429        33.322446540596850     
 H      7.0322850153807561        8.0446059036052624       0.86055414485320414     
 H      5.3008452155945598        5.0692624679333731        27.750931521301041     
 H      5.9403710341982405        5.2817413530295454        8.4400872174942005     
 H      9.9077208637722336        6.6307122508005438        39.656286613775670     
 H      5.7158936633564963        9.8249415215394418        37.479932547446445     
 H      3.2157247419505639        7.5978342332413034        7.8170224017955903     
 H      7.5608474426098331        7.6880409894913813        27.584380036940775     
 H      6.3962204490601646        9.8471923216319652        21.642957859575993     
 H      4.5566965852010775        3.5920415636978480       0.26317358637629523     
 H      6.1098961249870385        8.2752025128452988        15.559231346811659     
 H      3.3316656504258857        7.9721632843276549        9.8168975704664696     
 H      6.6359833832760273        9.9838820728328947        35.352927082266888     
 H      6.6770287336023806        3.0199935566593097        16.224577442151432     
 H      5.7856858830243834        3.1547051759286022        18.283075405912353     
 H      3.9098504087298416        4.3142768456654972        17.985609921917263     
 H      7.8429808381266888        9.6676202489446457        17.884247630791165     
 H      8.7012989725404850        9.2181222435576053        37.957058614768059     
 H      9.1587525562254140        8.1500623849959126        35.907429853775348     
 H      5.2053387838107064        5.2829654794794445        5.4958195980895157     
 H      3.4009139061371285        5.0849564319963729        15.948708525367037     
 H      4.9284683955307136        7.5367597211460984        21.716697220816428     
 H      7.2326425910708512        4.9738880590212577        31.468630453644145     
 H      4.3346720289174678        5.3018883414689801        9.6467677683751774     
 H      5.8642734071559248        3.1537722405609867        9.5410306067344717     
 H      9.9224037089211627        6.8948579650484332        34.407101606147720     
 H      7.6326623402320921        9.7097933983617590        12.711005282825166     
 H      3.6555533946440337        8.3845873058571172        18.333684407347395     
 H      6.4333674120902025        4.9491971702345525        19.854788308121467     
 H      4.4861244071561250        9.2797215753223465        39.417103785653943     
 H      5.4380096170908176        9.5250663888386065        30.448723630151534     
 H      9.6380276990496085        8.0096144520578623        9.3578297037162645     
 H      9.8225510610109996        6.6229506942033218        16.184655789932275     
 H      5.7772543868771891        9.7371508641581883        4.1188412920575237     
 H      5.8771736364938496        3.1863819703442711        6.9563339359798126     
 H      3.1358541769709594        5.8138588565620841        37.879805025809262     
 H      3.5880330366249966        4.6453133748628881        22.271193362301016     
 H      3.7537010212798871        8.6407592647841049        36.949559272147056     
 H      4.5882385733734150        9.4161958922144553        27.773592276216629     
 H      6.2211593083862473        9.8499347459663493        26.223037663434944     
 H      7.0863562850422133        6.6885196051873255        12.231104540597114     
 H      9.3442214608944827        4.5833777938392064        5.4922113847323057     
 H      6.7530624438400091        4.8535973266251347        11.456415727245410     
 H      3.4530090200549068        4.9721283797657021        31.152751791053053     
 H      9.6787553541830498        5.2089934053505438        1.4154070036585744     
 H      7.8184825104378293        3.2625179192229998        30.494645934459754     
 H      6.3344646162555849        9.8905093710897702        8.6922249167170254     
 H      9.6847018772743780        7.7412816878283595        24.658179572211399     
 H      8.8787975325527366        4.1375772379207554        23.460674241113576     
 H      6.6448473295761703        8.7567115541428482        10.967352094599613     
 H      5.0595318424514426        6.7830915898576221        34.934906010947579     
 H      4.9851835705109124        3.3654821890676470        36.991265071004243     
 H      3.0896484662123553        7.2400371595456097        18.699873294124671     
 H      6.2478020565068748        3.1785624353326569        32.873669262274653     
 H      6.5690784681051575        9.9192942133169542        39.472086030492697     
 H      6.4896632018365068        9.9719948582721489        24.201696327485362     
 H      5.1057557247708543        5.4998908290051149        21.274923257247870     
 H      5.4460366953497905        6.1737126004763425        28.264019234609957     
 H      6.5632134007818452        3.2114669133564058        38.560639052314556     
 H      4.9456805390976983        7.1448253133727428        32.719825615377971     
 H      5.3261523281015970        7.2418286960679028        11.100651224447459     
 H      7.3630805378882069        9.8120861444435885        8.5940248955911276     
 H      4.0464939753311295        8.8998523248838932        1.3359113683537649     
 H      8.5531165895469528        9.2492992917531680        6.5371343869769563     
 H      3.3051434128381891        7.7995631952676883        38.708906352348627     
 H      7.5823215993266695        5.1556086610647283        29.482021701635592     
 H      3.3481201938485525        7.7434161788297500        36.708085091237628     
 H      3.3330645894072988        7.9707602868471819        34.047255962554829     
 H      7.9195190849174457        9.6349810560453975        15.854269331425167     
 H      4.8712235227728691        6.4260300639192813        21.644078436664405     
 H      7.2181599574564874        5.0340528417633035        26.524423213000695     
