         150

 H      7.2586051886471044        5.2589151005386894        8.6090354899390036     
 H      9.1949895713627612        7.1684634791138233        20.532232606093611     
 H      8.8300568699155662        6.0954564568508411        8.0782317022005206     
 H      8.3408798981200789        5.7763074888786994        3.3919851257573961     
 H      6.8208212437050140        5.3036368992803737        16.267664846635089     
 H      5.2810020349158293        7.3782700797221894        20.922291498183576     
 H      7.7905815739225677        5.3393868616131899        29.186133572454775     
 H      7.0337598458917716        9.1033195539508203        23.585550664668169     
 H      9.2434085262670127        7.1999097896446926        1.0490767489180541E-002
 H      5.7382167058191671        8.2217684010870915        4.8235933753132221     
 H      5.9105101304387127        8.4738496567637842        30.619037597420711     
 H      8.4164978400879509        8.8611536481983624        17.346179890282631     
 H      6.0228513356473226        8.2622242314890126        35.943023814488825     
 H      5.3926520198630747        7.8406104408205524        34.287458437531903     
 H      5.5939789876969730        8.2625263455121800        5.9838256667297305     
 H      6.1817743359854784        8.9374632961420524        20.078385595324225     
 H      8.9982631302528837        6.3084115583294462        12.638970916055195     
 H      8.4046579235372967        5.6246027453127772        19.427006478836240     
 H      5.2723986202025115        7.3885282552582332        35.812793866614228     
 H      8.6868915327140339        5.9603042596842668        4.3321436431348648     
 H      8.7255069397070439        6.0477904608273008        32.590070625091961     
 H      6.4644699439206290        8.9788108116403844        22.730853096923639     
 H      5.7843903878764733        8.1869692566422678        7.0513723032199849     
 H      7.1951793146976275        9.2118729168260938        8.9852965124185484     
 H      9.0616869691896103        7.1085905252960133        26.426261109845694     
 H      7.2369824890790673        9.2348927355985833        31.593254812796101     
 H      8.0554873291335927        5.4692385888321757        24.417605586819157     
 H      7.8001987319593882        9.0829503340329865        14.647181223184738     
 H      7.3361494820305460        5.3033446753206022        25.550508702634641     
 H      5.7631834396422086        8.5255681698801933        1.2604527306124458     
 H      5.9550970396036842        8.2006640219043518        32.397494783317448     
 H      6.0027019398382144        5.7245174937996177        15.766977987112599     
 H      8.9405676231329565        6.4603240974805942        29.899492717940142     
 H      5.4244469632822936        7.9909177942219340        28.806738993560682     
 H      6.2490822866934650        8.8817360514168122        8.5954921933507116     
 H      5.6129551059914258        8.3315906098090782        37.746608674435549     
 H      5.8963834477552730        8.2323631727480695        27.910880121178781     
 H      7.2616392460312653        5.2603749127093469        3.5179851748275319     
 H      9.0169911124584790        6.5202499548372401        33.467603962603121     
 H      8.4217368534312769        5.6536478000656318        8.9842127978130755     
 H      6.5964371016241898        9.0748640265860168        1.4259398854480050     
 H      7.8714812970976133        5.3665694375652881        37.134155691358821     
 H      8.9817755843289468        6.2906819786970507        11.607716741594063     
 H      7.7503828713488403        9.1858903106992074        15.715577371301485     
 H      8.0412693207120416        5.4306715326936743        7.8466342345106179     
 H      8.3660963066413156        5.6345555067700923        30.000332185642637     
 H      9.2357331096202788        7.0831963621646468        38.879538676465984     
 H      9.2394107551566407        7.1602429718325382        11.034738633840419     
 H      9.0948230113059125        7.9115975259787934        16.797179691839407     
 H      5.3912587717448188        7.9561014586040173        36.771054251418647     
 H      6.8421837921226070        9.1474840835614817        2.7079756800471810     
 H      6.0841554727039968        8.8657913477966872       0.36651451407312602     
 H      6.1260609289988999        8.3424965333953303        23.562159769988675     
 H      5.2602314452005077        7.3111058055923523        33.297869504939136     
 H      5.3013694793906492        7.5047762998891416        22.411695829732821     
 H      5.6557089993006091        8.3239979313037011        39.423770512601806     
 H      6.7636135922643987        5.3502044459287124        17.351184320340270     
 H      9.1270599526945482        6.6188824964003086        3.5487963088559229     
 H      8.5746884846651614        8.7318701149875846        15.290664167546005     
 H      5.2803492687224427        7.3046702703537090        11.635927846105885     
 H      6.0055020189472721        8.7946176987471780        36.797442065185699     
 H      8.8269813104023367        6.3193992347469568        22.018868425601564     
 H      7.4142524223361228        5.3010259379950719        38.051975387906957     
 H      9.1303383484056173        6.6454303690034120        35.303884579554321     
 H      9.2119885081146275        7.0541053838052976        25.424257122627374     
 H      8.7110591724774160        5.9231611301348668        6.9847094304265278     
 H      9.0800823052736668        7.9523488306203332        15.794162675032554     
 H      5.4254906466824906        7.9208787185701173        27.009197564249206     
 H      7.3774211654013353        5.2756630643929157        9.6099186373922727     
 H      9.2129719177861187        7.0190286417314747        5.8596783141970450     
 H      8.7257296267517397        6.1350553317378287        2.3743285924871578     
 H      6.3217315021531126        8.9346243636029783        35.249350644140002     
 H      5.3223215420433645        7.4632531745353514        18.749033473917731     
 H      6.6621770681335830        9.1559658862566309        13.320930138108444     
 H      7.3941125702889572        5.2767655734012111        39.112150228037777     
 H      9.1836610711619677        7.0865097634713257        34.342278759916120     
 H      9.1928735027868136        7.1436467187038293        29.164126123992091     
 H      6.1649780241989083        8.8724377122386304        12.467911476100278     
 H      8.9346699557914970        6.3492807896519210        19.967256517627821     
 H      5.9794290813129329        5.7175963736859412        16.803791960197099     
 H      8.3038945629850058        5.5692189018602498        25.444094298363478     
 H      8.5247156877622690        5.7616838336253897        35.370969762995934     
 H      5.4884776316624997        6.4406448841659039        16.314837856857906     
 H      5.3812849294731206        7.8678731885327506        1.9320805857391294     
 H      7.8767195451928762        5.4044299742262423        26.385962415685437     
 H      5.2657401009339102        7.4109663845057323        5.4596466776720929     
 H      8.5271780167365137        8.6857217716167288        16.293286330053647     
 H      5.4948066187774076        6.4646370364605046        15.295621533859645     
 H      8.4069197578489963        5.6306760380187892        38.870956359979296     
 H      5.3687567305840203        7.6138094005914647        23.446988554055785     
 H      5.6523500974715102        8.4391369103317064        9.7892679982114466     
 H      5.2999254289970414        7.3039307624794407        1.0848418989231343     
 H      5.5971254157130650        7.9976649559395394        10.958303951954646     
 H      6.7672769913066890        5.3307082481581638        15.235454110195503     
 H      6.8148856167494953        9.1873646598772876        36.100437167065380     
 H      8.2818348146954293        5.6297911186429666        21.530491880480245     
 H      7.6564137004243236        9.1738952084676644        16.714972696711122     
 H      7.9566403231464449        5.4200859507769357        34.507974367468002     
 H      6.1900577382991075        8.9279746813112411        28.936044482766114     
 H      6.4994064952195130        8.9205487409840565        37.697768238992595     
 H      5.2874486441931827        7.2725281400826276        19.880101292220179     
 H      6.3212363163271226        8.9936761553439659        7.5845009430190871     
 H      6.6942406967643793        9.1512666675695424        3.8031664525257884     
 H      8.3666407041496367        5.6271021500406198        33.532753528804946     
 H      8.6927254274121299        6.4343831950735044        21.012083063726045     
 H      5.3127166935416010        7.2987028731611465        6.4866645720468812     
 H      6.1779250214068133        8.8421823802832709        31.594444730241225     
 H      9.1902757934503931        6.8197635845159850        4.6270461972841206     
 H      8.6534846459125205        6.4604683713774351        39.411283995353465     
 H      8.7546835755653909        6.1276363231757518        34.411114743845744     
 H      9.2464191747170403        7.1419896791925161        12.082708243750236     
 H      8.3581452517639097        5.6201730411915243        20.462326199794379     
 H      6.4959805305368903        9.0383608343389419        9.7968540936464610     
 H      7.8725733942360643        5.3610378098464189        4.3109640440977248     
 H      7.3482673369421425        5.3063981044938808        30.195262074439466     
 H      5.2872223090063315        7.3679007776521601        32.250723415896488     
 H      9.2268780864030155        7.0079586866848400        7.1670549751278578     
 H      8.7530884290121325        6.1572589577292618        37.977668926354845     
 H      5.4800332055606376        8.0587753804151827        31.493118691716965     
 H      5.5372775685240621        8.2526948686878665        20.476485689066347     
 H      8.4320837554992583        6.5300293206375812        25.790058993215389     
 H      7.8025477392534066        5.3394072855434933        2.6272190023860054     
 H      5.2772128462232422        7.3915693555428854        12.692011302372530     
 H      8.9058030784209485        6.1922956360861985        24.939714002814174     
 H      8.9484073491297842        6.1962391777582688        10.566854901541417     
 H      5.2761082697393746        7.4435461049134641        27.914488901118911     
 H      6.2481106582099928        8.9738284613284538        6.2774630636119593     
 H      6.0929039638549609        8.8139533381970292        11.370924836530087     
 H      8.5944214145219586        6.0393938810291505        29.048614765104482     
 H      5.5306693842250141        8.2177959290165123        12.045760900391866     
 H      6.4529559902412563        9.0704913138039895        5.0681695966136315     
 H      6.3189862884531385        8.9782011956480865        19.001417538003714     
 H      5.4661066449471694        8.0285048915779189       0.36698332794324351     
 H      9.1720982773492370        6.7292994211730965       0.90170988892026593     
 H      6.0547577905179502        8.8162023380926975        27.034834414594854     
 H      9.2206036169405152        7.1695210224217378        21.533407977720959     
 H      8.0406128587972692        5.4534529187168985        30.986358167841388     
 H      8.3158927768969662        5.5645065513040599        12.060739806739406     
 H      5.4762712802896791        8.0788605317048514        24.373660758233978     
 H      8.8767364606384280        6.1308697900833771        30.849661052818476     
 H      8.2921396227062623        5.5755710564105510        13.100652521399770     
 H      8.1523656148458201        5.6297156650151798        39.865903499389034     
 H      6.0143813464805422        8.6475149443608448        2.2559453262151412     
 H      6.6926802143730031        9.1562093084365568        30.669098249055658     
 H      7.1915607172621110        9.2452135242253579        37.034832616283047     
 H      6.5535894658759020        9.1202873425100321        27.961344257162875     
 H      6.0140702039589504        5.7615053896545954        14.728614280666799     
 H      6.1799488364431951        8.9370691706946221        24.390782346145052     
 H      5.5839739238150337        8.2465846127587845        19.403180478709196     
 H      6.6512276822063274        9.1405585356390375        32.553341771656335     
