         201

 H      6.7795969208548277        5.3166796675318437        16.115668567916376     
 H      5.7792477452033042        5.9136138924022230        12.781978982038966     
 H      5.6804465259299288        6.1942542330778085        15.452577236643121     
 H      9.2232783550578219        7.5330605334344112        17.470036033565307     
 H      6.3191478933451721        5.5750184819892104        4.1493887859804959     
 H      8.7545301355738232        5.9727862431091694        30.203747980375422     
 H      8.4064750608696475        8.8698759472845392        16.665279447978858     
 H      8.2103668823363751        8.9272491883573917        27.085546709468446     
 H      6.1229619042322145        8.8633877723818344        1.3547473158881567     
 H      5.8770717864089823        5.8140099488797858        22.249095645503061     
 H      6.8864548789804658        5.3012850224137029        12.574502025183023     
 H      5.2798424418109917        7.2356814925561244        9.5206447386693416     
 H      7.1498368915790911        5.2577563748193734        5.6996720240823970     
 H      8.2933277726739814        8.9559903462340742        24.047734018857273     
 H      8.5561491896757733        5.9974153473489462        33.284200815867088     
 H      9.0848131657958788        7.9669050218152169        22.008968054141661     
 H      5.4825254235013974        6.4015826486039096        21.078314173473075     
 H      8.4452290246946138        8.6456152340910091        20.165570218003840     
 H      7.9433673933785931        5.4002270891034687        30.626454750440232     
 H      8.9525660272122387        8.2953491741427499        5.6762386659141590     
 H      5.3829515106131334        6.5364580526157168        7.4012945383042874     
 H      6.3685723596232773        5.4553833326798893        25.709484979567673     
 H      5.5195471993605016        6.2722345899497833        28.045390994812351     
 H      9.2100024478353184        7.5050603055827567        9.4558867058459253     
 H      6.9009635909547145        5.3384520129845541        28.227629650137292     
 H      8.7407305192260925        8.3690577362955061        25.609795077422177     
 H      6.2661466099548209        5.6534364809904591        14.605156216836804     
 H      9.0188805279532609        8.1120687485745258        28.518928810994442     
 H      8.1342265278954198        8.9921024026424234        4.2361283836846892     
 H      5.2806454658910882        7.3343229470671174       0.24879242384385003     
 H      6.2955233537365753        8.9674597163796506        39.349566091215749     
 H      8.3005608962348827        8.7538175304112276        21.941563355717602     
 H      8.7629648211321580        8.2689934873376760        24.612144584154084     
 H      5.2907550617349344        6.8595918965319118        16.544753241309852     
 H      5.8341669212484017        8.0621360910131816        39.828154071337963     
 H      6.6108036662626590        9.1323453795437448        31.249940566503174     
 H      5.4411026801765008        6.4117819046335560        29.135965444654065     
 H      7.7509834742481374        5.3231212577620832        35.659925457967688     
 H      6.1450657927560712        5.5936930427719833        27.623292388394947     
 H      6.3675251341201395        5.8154584852324644        26.657814529255567     
 H      7.4989258440281263        9.2342864833287148        28.827612719782959     
 H      6.3467599093394060        5.4716314483378374        17.459745931197684     
 H      5.4816400740877063        8.1224419071008924        1.7918989786304973     
 H      8.8686418833922787        8.4122774061532368        4.6568205281772359     
 H      9.0456751204085393        8.1280306212316180        26.558771703784679     
 H      5.3542613539644277        7.8212595117653683        33.358893958912304     
 H      9.2118864479425486        7.2357735464809769        2.3315030556186009     
 H      9.0662709007369457        8.0832619713088025        13.021783503323562     
 H      9.0363590916572711        7.9968447247086401        16.536233422782949     
 H      7.2118511552527886        5.2703521514258203        19.797394501606671     
 H      8.6158029472646991        5.9047981884406973        32.253815123046415     
 H      5.2917996178681959        7.1507265851479849        23.426844365938564     
 H      8.9696304571243530        8.2602210585544391        23.612081589683413     
 H      6.2385244568891514        5.5784840910971809        23.643536686006723     
 H      5.7627004853327639        6.3811512253848557        9.1984445349377584     
 H      7.4357359967324985        5.3784153755790385        36.725827726196066     
 H      9.1832218223956303        7.3186934240513830        10.540592627088992     
 H      6.3594449031236087        5.4766808183010411        13.496986924289111     
 H      6.0053930907334125        8.7836021963543018        2.4345895082601920     
 H      8.3185444540837299        5.8470728327819996        37.158934931018713     
 H      9.1574635517870426        6.6738424034533672        32.719153969360150     
 H      6.1511440239654647        8.9092819632903453       0.34168220800259713     
 H      5.6082036907058939        6.1220098521034583        4.6772162812559088     
 H      5.2675409037076157        7.4600355575353481        39.244693842687340     
 H      8.2815573591475538        8.9622481246084895        28.113110913568576     
 H      8.7987141323227984        8.5004839614565952        17.534182983783335     
 H      5.7392200649048579        6.3992656153765379        23.954537430517426     
 H      5.4083406099255065        6.7024927297635966        22.500021818472575     
 H      5.6145196838566882        8.3639788293276620        38.881497559620819     
 H      6.5659961012507937        9.1243297024949257        37.426632451189910     
 H      8.8689854526218408        8.3477195618585789        19.291552690011727     
 H      5.6907864163077910        6.0339551691190181        8.2537103503540514     
 H      6.3539442747820543        5.4751679178134927        6.2694589135236436     
 H      7.9989738739547782        9.0883497522556009        19.359113359701130     
 H      9.0194452729849832        6.3450344691154728        1.8338692470266942     
 H      5.2796468970008741        7.2641497445980043        1.2650077419631969     
 H      7.3157417567054415        9.2422668099280472        14.822667570464501     
 H      9.2358678712358593        7.3463269377733109        24.056525059340519     
 H      6.6590380369592124        9.1539687263283049        32.309878926677300     
 H      7.2738969210239803        9.2315646740325157        13.187411356003288     
 H      5.5269307105991246        8.2230435169720320       0.78962505341408762     
 H      5.6027069276736912        6.2683251666962096        25.039875901934526     
 H      9.2492811820828376        7.2314060496132262        1.3146898631858108     
 H      8.3886168485223482        8.8798613628407885        29.117844715086456     
 H      8.3646877713001206        8.7629830645942395        18.410729814325595     
 H      6.1218135492007191        5.8855957477624221        7.1541607962472646     
 H      8.4792127122317567        5.8450909489323664        36.166988766434869     
 H      7.7554233316291175        9.1643474331617529        17.550231797219006     
 H      9.0574535476331715        8.1000088751570676        7.6715452048509434     
 H      6.6451373372861351        5.4364026765129934        8.1609553815324851     
 H      5.2553094838699357        7.1466231082301412        24.519975337328827     
 H      8.8064595948179001        8.4692090102306938        3.5855712361122283     
 H      7.2928515208447866        9.2109603035808014        4.7506338996610236     
 H      7.0808869923890141        5.2614388618235042        27.208558085989896     
 H      8.6945370744296966        8.5245364758819555        11.147844136086029     
 H      6.9980673438758272        5.3179387871041337        7.1403609432255104     
 H      6.5198476169552890        9.0866294807877850        30.235359425893495     
 H      6.6797447143576187        9.1444487919332218        33.340156832354502     
 H      9.0661946729888800        7.8924118236225391        18.401844474276697     
 H      8.4584710011456359        8.7705297269884781        9.3799011685781810     
 H      7.1713335793874800        5.2753413247374956        4.6110589489369849     
 H      5.5396398852589481        6.2310240976055322        27.045377644371616     
 H      9.0679362843733724        6.6288356010459859        31.718765025270855     
 H      9.1818776632638368        6.7515547013656088        37.748193272817183     
 H      5.8626068181560376        8.6472453671014762        31.881597269327408     
 H      8.6545274170495734        8.5032070968910372        12.179097658064700     
 H      8.0866902225058084        9.0655447911108826        25.279933825069818     
 H      6.7010540392795876        5.3497424611963025        21.830768000747426     
 H      5.5471633382103018        6.5028817568716093        10.173393382830879     
 H      7.1290677049908719        5.2632963939242918        3.5976170947036157     
 H      8.7919430665886988        8.3707429198917840        21.080896229270227     
 H      8.1774493266232913        8.6656950943094468        14.878995613317805     
 H      9.1331770139470354        6.6392424380835564        38.742863365528287     
 H      9.0643446605420266        6.4467519263605002        36.793269108135824     
 H      6.2618437460295171        5.5607410909101391        20.026008103756695     
 H      7.2823062496360391        9.2433421521961048        3.7123625141740946     
 H      9.1752727355121948        7.7706537069258736        11.605837101054849     
 H      7.1517023630275744        5.2691700599749067        20.865161194734434     
 H      5.3410695659591996        6.8473719143534097        18.948256712661649     
 H      8.1730086314940955        8.5614733653377417        13.135193337195018     
 H      9.1725227001827356        6.7083588885110483        33.761857940887708     
 H      5.2833127698289566        7.2424951339696095        17.624000198978781     
 H      5.3306334970391029        7.8109800639177838        31.352820557910835     
 H      5.8077675225294794        8.5147148414248015        36.856152692279494     
 H      7.5756865936461155        9.2089395936010856        21.366232230492557     
 H      5.9481339516871925        5.7750795194443558        10.782631516229827     
 H      8.5244901038613676        5.7952139476796525        38.186372350174665     
 H      8.9140313873557702        8.3388765794442463        27.531367064707975     
 H      8.3850020999401664        5.6397880384209245        1.2303898067329364     
 H      5.6533014897873084        6.1353157827523397        3.6321713712953927     
 H      6.2753452378443173        5.5114911594476972        5.2450183813434110     
 H      7.8056993699018653        5.3374236301327818        33.720659084283064     
 H      8.1918157521429187        8.9958492163850856        8.2449576265080129     
 H      6.2392506860753896        5.5489467764095952        24.686506728375765     
 H      8.3587908478092299        8.8699349225476691        7.2594529084896662     
 H      8.9483774976178427        6.3079220514586058        39.748199576414457     
 H      7.3428532582059560        9.2449514749102555        26.637718772514521     
 H      9.1843538756307783        6.7802834018961153        30.700613087833545     
 H      7.8636848930001770        9.1409319626015559        12.267167367715722     
 H      6.6042459771314022        5.3888869754759030        18.837459928384483     
 H      7.2096673674661371        5.2831263634898624        14.038577905634494     
 H      7.9507143276130687        9.0733545295987277        13.969198396603385     
 H      8.4123654459007486        5.6872650366478608        2.4013222901656852     
 H      9.1293850811301382        6.6124968714104817        34.756441901499421     
 H      6.0987277734498244        8.4928789584195883        32.845717293232305     
 H      5.5952787409065570        6.1491628113169012        5.7020646573923361     
 H      6.8285132219272935        5.3639964501776394        29.264347609770510     
 H      6.1583329810292238        5.8205642606002552        11.789794719839580     
 H      8.3436443719221707        5.6333054060585654       0.21869536798798150     
 H      5.4025999187920029        6.5114582847199607        11.849778344133439     
 H      6.6480804858447788        9.1251996745668755        34.361757118916444     
 H      7.6242995296576472        9.2037120038688549        20.335693801674697     
 H      5.2806823720868223        7.3876409228687976        2.4398347508313041     
 H      8.8161718007616816        8.3926478469065682        13.948051523371548     
 H      5.3047046980749490        7.0609111473488220        10.984876641639993     
 H      5.6545913264045398        6.2642188474041571        17.413103186964410     
 H      5.8715368902720124        8.6565769256455454        34.846846295853304     
 H      8.4617203816349544        5.7286126269688618        34.385969048061554     
 H      5.6280370509365172        6.1693387984052102        26.045075789712378     
 H      6.0099626151846479        8.6190669605810299        35.840616776961760     
 H      9.2284461053523437        7.1612971184071537       0.29224872596969459     
 H      7.8229555196444922        5.3353588807954422        32.698440203084211     
 H      7.0598505026693594        5.3465306005925797        15.141324907308524     
 H      9.0743960109645911        6.6195984075841885        35.788544640357742     
 H      7.3943435004201730        9.2103699296434716        27.701380659679003     
 H      6.0568409413155369        6.0364775667512021        16.479477854281015     
 H      6.7205328173899499        9.1777446133740668        35.371908350367754     
 H      8.9242665110278221        8.2659094972200080        10.181429511210366     
 H      5.7070186515873109        5.9780813043922638        18.516819411403553     
 H      8.7610669527516407        8.4874052882603443        15.705649856271664     
 H      6.7301768381673615        9.1771693806517121        38.443649450798354     
 H      8.3576500097972009        8.8906893812254335        23.014288139288006     
 H      9.0336867646006205        8.1321166340214983        6.6697056482407779     
 H      9.2380473571355655        7.4594590734148793        23.050362996952270     
 H      7.9242084767735381        9.0750620782849865        15.810978722393122     
 H      7.5768213116403489        5.2813492727705924        37.754589731703739     
 H      8.1567671826930255        8.9503757208584407        5.2398191620191801     
 H      5.3043977371030433        7.7085746658889542        30.289859177406189     
 H      6.0427260008902008        8.4028950775021727        33.863559654803680     
 H      5.3200275821372314        7.7188212408976185        34.396198950267120     
 H      6.0571683484733567        5.6573488774433072        28.670987441048023     
 H      5.2713011733672319        7.0591363966630762        8.3667361143420340     
 H      7.7876083788305417        5.3303441535442824        31.697091363232577     
 H      8.2274150976987297        8.9791126809190551        10.383762041264433     
 H      8.2039134989833258        8.6398224297299144        6.2700463733117893     
 H      6.7197449903060420        9.1572532142303764        36.387028673361563     
 H      5.6066914310829459        6.3620901776460261        20.001307288324977     
 H      5.6895374303128419        8.4460611579920339        37.870424099036882     
 H      5.5627921125521862        6.2058713277923134        13.735435777964426     
 H      7.2533304407931176        9.2497661170312373        5.7680060660902379     
 H      8.2238657131501185        5.5386610361358413        39.185480281759908     
 H      9.0138383990192281        6.3108452039511462       0.80447194663400023     
 H      8.6237781524224122        5.8714196557657088        31.237157176066926     
 H      6.2984804377234482        5.5249615610610077        9.0964211437968636     
 H      8.9667757096452636        8.1635837201004691        8.7027153892297218     
 H      5.3808780717546734        7.9541674661018060        35.389315328564358     
 H      6.3395190491234183        5.8608393400310677        21.018450567104761     
 H      5.8124693342734988        8.6314996448931236        30.815745677761342     
 H      9.2339486899988721        7.4420098582995342        25.060617684421171     
 H      5.3692489868995201        7.9099182081457027        32.347397777842474     
 H      7.5498772536204806        9.2273785478528367        6.7710949136401704     
