         113

 H      7.2395689397396641        6.5211938653930979        18.309832818093980     
 H      8.7908563827544803        9.0426259967926494        5.9508017075056854     
 H      7.5274445377560424        7.2527196964159417        11.071282622745910     
 H      3.4218310113877162        4.9674941394918104        16.692349336581319     
 H      6.4403502394568175        3.0232989730232123        38.012244704615625     
 H      9.9869864235435877        6.2359685765533843        24.524627437552599     
 H      7.8769784292077087        6.8973424873868208        6.8881180679363601     
 H      4.1774689143746686        3.8868160614940193        12.144454398341379     
 H      7.0637918732594880        3.0499424475428798        11.291038158843701     
 H      6.9500608760481830        4.8076102236635032        21.867062048706416     
 H      5.8729033798867896        3.2014953806989963        23.280633634735960     
 H      8.0036181783836486        6.0494271420037409        35.553726224808365     
 H      5.3937676215486530        7.5464313392382518        31.406906917736663     
 H      9.9378788197459063        6.0720870920109435        8.0848466114939992     
 H      9.8455985905918464        5.6515353890999931        19.553515461679456     
 H      7.5843517623601446        9.7565273682290030        35.750822957935569     
 H      6.8417721426800684        4.8028760888841058        12.290357664609168     
 H      3.2828916067222900        5.1791795648134800        31.920759532718627     
 H      5.3277902324375974        5.2738609576513200        26.553401132337996     
 H      3.5872518196586785        8.3351521667844093        32.400274692543903     
 H      3.2076621952259856        5.6191090354318423        21.549982171609098     
 H      4.9385226484999638        7.1048170527863457        37.470977533107053     
 H      5.0712565914140466        9.6815509193332456        15.781222998527946     
 H      9.8476126758773734        7.3275952479666104        17.029343395459005     
 H      9.9334190725408504        7.1771069003159944        5.7542185546907714     
 H      9.8338568923904930        7.1588493524922105        36.381220566700641     
 H      9.6720881157026852        5.0941025999362761        17.532808198192868     
 H      5.1312762283116715        9.6922890280944127        11.581986329618870     
 H      7.1164202513850965        3.0870926579083027        20.684084661584176     
 H      5.1032061277224923        6.4504266860355601        2.8920989849480545     
 H      3.1823230954702182        7.5080409212001493        10.584512264694565     
 H      8.9608453125300844        8.7222755922583737        26.622973144994027     
 H      9.9501141908869482        6.9489426565701402        29.115981259768549     
 H      3.2240846380492210        5.3961085891502147        10.159678551951695     
 H      6.5915152848102734        8.1879064819763538        12.729083025093377     
 H      6.3160376535391007        3.1285359761395179        9.1685166233685251     
 H      9.7356080263903539        7.5655050535098880        20.315893431653240     
 H      7.6548683844621950        5.3189560748693498        28.657829593887588     
 H      7.7320981355440344        3.4071851644530255        34.238889678466570     
 H      9.9860609184259470        6.5724819089966022        32.064802406237789     
 H      8.0057017586424379        3.4219184982189379       0.58456343242538167     
 H      3.0751381986698916        6.9899879356026986        17.463353008301599     
 H      3.7964851069402443        4.7053840314582764        21.492759500233007     
 H      8.9474490506067657        4.0714780166613691        3.1728179111603318     
 H      4.5134991974959524        3.6369241354727309        2.3380415480017023     
 H      6.3705145377323644        8.2206022390298195        30.991049663505848     
 H      8.0595872744357049        9.3664054901720917        36.553788108357615     
 H      3.3962227646119483        7.9244788940592503        6.1790293866036974     
 H      8.1295384850860231        6.3809464098155360        2.6373370126158964     
 H      4.2836868761947473        9.1350168246321992        11.433364543702062     
 H      3.6632173216145940        8.3417200490618573        26.388254313181285     
 H      4.7958493534662985        3.5437891519381490        6.6148652921891768     
 H      3.4864419349538149        8.2610037711315059        38.234772513792457     
 H      6.4683702144662787        5.5860173546524754        26.915443096661228     
 H      7.0002468303210268        6.2587546306291921        31.675785530392314     
 H      8.8895428197272519        8.8170273012100981        18.449197861946224     
 H      6.1253572372575693        9.9281256873377721        32.055667269645717     
 H      8.7869305462572012        9.1413935113631641        10.004560565408012     
 H      9.9751903699028510        6.1479542780883554        5.9595558715918431     
 H      9.4284247100999128        8.2734119008070266        39.009865396480485     
 H      6.6334807300872125        4.8890630013253027        8.1749054873888038     
 H      5.4878038876997373        9.7830268660255442        28.020335110535573     
 H      6.9669605093821492        9.9684671916367193        16.593341072261765     
 H      3.6778908594352688        4.4913841477145526        14.713376157791265     
 H      6.6298842185429061        9.9426529748886558        29.920849279203900     
 H      4.3332415666917035        4.5782307081143330        34.692367608770518     
 H      9.8175328144440233        5.5693022451616256        26.574091462045828     
 H      3.0849019447741353        5.9973461035027649        16.975236968488929     
 H      7.5956621648280809        5.2798436324839368        37.390360289128381     
 H      9.4910888774045503        4.6845752676728152        23.227185565226321     
 H      9.0104680182803207        4.1297352923915511        20.619314336102335     
 H      8.2174803052268519        3.4650383933163131        20.860978978534988     
 H      8.1366552911635406        6.3970459409814007        20.838297875165303     
 H      6.4205976020089910        8.1561890793261789        17.355600675066796     
 H      3.9018382330777763        4.1713678601545672        32.054816910483886     
 H      8.8242122103217415        4.0575269807709953        22.805865002511876     
 H      4.7897758332093812        6.2243054266655973        13.552771791218492     
 H      3.3888262683775090        7.8411742779514331        21.992645607885287     
 H      5.7198219601230802        5.3018453181550713        17.586587167012731     
 H      8.5033060344138498        9.2933786722863729        1.1605217466847866     
 H      8.9127134537202579        6.1746182240364860        39.658549649995976     
 H      3.8383583668136594        4.2582737167920151        37.689441519045396     
 H      5.3737383687468823        7.7258901920366609        23.309567644902053     
 H      8.0859984040795716        6.1736280259821230        5.0154542632080572     
 H      8.3808985248867529        3.5919089078878614        36.319434361691677     
 H      6.4764142181466298        5.7906354947941630        37.060020522250625     
 H      3.1007208748875676        6.5730860149605297        28.032859603953927     
 H      6.0296218989060915        5.0464274972226990        22.335142736921227     
 H      4.9833837902038134        5.9059977490576561        9.2548784404321367     
 H      5.3282436602154410        5.5038045108055762        33.220409108898849     
 H      7.5769641148266018        9.7751745376868513       0.88662428321124154     
 H      3.6289806343664819        7.9871269252652759        24.291293036622022     
 H      3.2040943358626506        6.1553038925457919        32.574853731953127     
 H      6.1521805568326489        8.0387041234166396        23.870750390810624     
 H      9.6858568039518982        6.1098393174578707        10.120889046108909     
 H      8.7223680979076015        9.1121302343437875        24.334292294303896     
 H      3.5779160261020988        4.8152214654170917        12.461110532128812     
 H      3.1755192514916066        5.9094859460802018        12.340536488088581     
 H      6.7051242482172180        4.8874562599964042        10.193987917584170     
 H      8.0946054286964859        6.4380970853798116        39.064819379379621     
 H      8.7864647639278282        9.0288937378429672        3.9189383561113416     
 H      9.8496765167186862        6.2939907183362411        29.923307122921869     
 H      5.2666700519817056        3.2692676591561711        29.554613950764438     
 H      6.2067270362500730        9.9175052245337731        11.548986735500579     
 H      9.9513677326253127        6.1520054009935228        13.605306547010324     
 H      4.9678965532056987        6.9199174258370268        25.359223785227297     
 H      5.7834587844136198        9.8654480430422886        34.646945386360670     
 H      4.2920985530557223        3.8922411023853973        27.597740263026527     
 H      7.9568103628292723        6.0311933773240947        13.723258794296733     
 H      3.4734762805839057        4.9660918997275996        23.515966879437908     
 H      5.6388112447604462        3.1901693888632754        33.891465633144101     
 H      3.6681804856620746        4.4850785762538550        10.299624994403148     
 H      7.6528940126394751        3.2053943125291822        25.444937132382510     
