         339

 H      10.023773038058213        5.8409040974551765        34.383701487582123     
 H      6.8112461762101404        6.8357181460519589        16.229491533099754     
 H      8.7222376947558935        6.2183472615466622        30.053528957411132     
 H      6.3250259962629674        7.5037879545594164        6.4272952383926949     
 H      10.874188454661942        6.8047954735943526        19.113631725478328     
 H      8.2571125993210064        11.227740426305626        10.481967554477032     
 H      8.6573817445193271        11.207536535328979        26.217449719953720     
 H      10.784958953434925        9.8511369278241006        5.7018683168654425     
 H      10.717027719524458        9.9251644203088496        26.915567346766327     
 H      8.0325967452411877        11.233727464680070       0.23126233535479832     
 H      5.3190062732109995        7.9618820617995452        6.4781912239861059     
 H      8.1012755756628803        11.195379283053397        15.507802663615031     
 H      5.8359841465126321        10.021921964152352        7.4595840482915765     
 H      8.6508566471235362        11.109704958466748        9.5469403976208120     
 H      5.2674002814411702        8.4275730403593592        32.014024694694577     
 H      10.407950028252248        6.3822879581000338        8.8160135983966939     
 H      5.9754555089852097        10.165827309736381        33.725026080027348     
 H      5.4162026086482129        7.6188451385263622        16.935855080493575     
 H      7.2422011899677008        5.4971240778769657        24.389718650686831     
 H      11.240269997220349        8.2048991478352580        38.081304312939345     
 H      9.0842528464801529        11.105749162995808        16.045639033520093     
 H      6.5442968804090818        9.3966805516960807        33.335012435197896     
 H      9.8537692295823831        10.732841773507490        21.761858651920818     
 H      6.6106465230310327        5.8138991116554806        25.365940498893803     
 H      9.2030093111955580        5.4209059715458459        24.971979545467057     
 H      6.9819581781655664        10.907973893434143        33.865499107451136     
 H      6.2422855299061615        8.1977804646345476        7.1550575731136830     
 H      6.8518845823480685        6.7586333774522602        21.045953236113377     
 H      7.8300668504780147        11.209825943007450        25.261164035398522     
 H      6.5806241652193975        10.708251696535894        34.782509876513068     
 H      11.099852449167168        8.4366255682620590        2.4980439984772955     
 H      10.029808796361642        9.4252605782365197        16.533923420262230     
 H      6.8254730339314067        10.754030479473197        29.843085987567338     
 H      10.333258530371346        7.6874597557714628        7.4094525330791550     
 H      10.413577122131530        10.325464067840540        20.875234950485964     
 H      6.7687157516726613        5.6701970756790177        20.810137924775834     
 H      5.5409876307902168        9.4897001277616990        37.904219636600310     
 H      8.7739566322078115        6.4027797447715722        9.3788025383641784     
 H      11.118503060429763        9.0447697181666324        11.307133428118330     
 H      9.3840934156165776        5.5274694432823193        39.498024729895597     
 H      8.5595279595732752        5.2664487803969804        9.8647130743539204     
 H      9.3227822606775721        6.4637402438726044        39.006668397502906     
 H      11.191783416119605        7.9236329210588972        11.878068134316004     
 H      6.6431653269828619        10.706796822758740        13.547948543946930     
 H      8.4216447368993066        11.243237100363244        36.003587409386846     
 H      9.5392063467770836        6.7190258059090491        13.827680747669545     
 H      6.8180590429413472        9.4717021045471661        23.438627215302859     
 H      10.270996204892956        10.434026107165332        11.599121028769396     
 H      9.7502451846853919        7.0635147556189279        8.2820016906396106     
 H      6.2721834431877799        9.2869835105921101        2.9904441797216013     
 H      6.1792894124134365        6.1279524316722869        15.451679928746586     
 H      6.4518313056268788        10.638093751811727        18.616227807807970     
 H      8.3809288677258511        5.2679583269252532        35.775384600625657     
 H      7.3645531130683244        11.107505570176878        19.218859189529383     
 H      5.3312712107273210        8.3907126264270016        8.4087828063313488     
 H      5.2961204219091762        8.6274006324055232        7.4309781046072532     
 H      6.2032469228360974        6.0716955781231929        20.032998890147304     
 H      7.7734001580392249        5.4661491397623321        29.908250313638135     
 H      8.5180155361308501        11.214214109319055        24.515910688352356     
 H      5.7078110878656467        9.8136721043270079        3.8509762940314713     
 H      5.8633724715330775        6.4869939584306691        11.757942099331203     
 H      5.3474351651008778        7.5367158389069528        7.3861152746125729     
 H      7.9232757398418130        11.190885667554946        20.553879357175301     
 H      11.151018261302305        7.5690123035553079        32.868919968348621     
 H      9.9057576512005721        7.3823587070601180        3.3776409354405246     
 H      8.2935368932254665        5.3029296802639765       0.22741367442878785     
 H      10.342868878439555        6.1145938889105400        29.565725658910555     
 H      9.6116900080823484        9.7873992119189612       0.81282593368172229     
 H      9.1514444571080009        6.4736296067231445        34.408439240347029     
 H      10.549691519792738        10.147400972071543        1.1206574211161042     
 H      6.5725320704406869        7.5173564913909026        11.960953315330723     
 H      7.7436170682330507        6.2016012661940954       0.25662221643879629     
 H      6.7084753205963708        5.7981237417913176        35.709835860342899     
 H      7.6030142429777232        11.111408345590515        9.0593955448768622     
 H      11.227135730636725        7.9940844682741856        28.177659220102655     
 H      9.5142639164361995        10.943404647586043        5.9362337009649115     
 H      9.6437761897356644        5.6537897974886491        18.739053882457373     
 H      8.7182256147688229        10.216884411106195        19.909074363694216     
 H      10.636983041696784        6.4350802889678604        28.011521614213613     
 H      10.552104982444272        6.3458931483546666        23.205011898332071     
 H      8.7739071600387835        5.3092257923122705        34.234439790464322     
 H      7.4024273144063191        5.4755145369853713        10.730685725445516     
 H      5.2813727175230429        8.5991724163983712        17.767257017532227     
 H      9.3087605660514203        11.008303692838942        10.794604845675636     
 H      8.6925054493033596        5.3134649037899884        4.7438774312829999     
 H      9.3885545672711874        10.066000049370452        15.829396100443661     
 H      10.066507736093758        9.1952515253774418        32.305303950479299     
 H      10.862464390055434        6.8241203730930469        2.4181116294353959     
 H      5.8673452607342584        10.059636589547111        22.206390481652328     
 H      8.4137355308311346        6.1916503316559428        25.097505156176592     
 H      9.9048725188662541        9.0228574999578690        27.079347056798621     
 H      10.298587162681189        6.1032686477464049        3.1938082636644083     
 H      6.1751072380375591        7.7988079246486315        32.100733507835422     
 H      8.4441337961842464        5.3610277229023922        25.909304111898887     
 H      11.192571502514442        8.4275521156455930        22.286089291987210     
 H      9.7077576958296383        10.851852479084309        20.230060611398756     
 H      10.986650256715210        9.4320354705553218        35.925463302394462     
 H      10.834982334345437        9.6617736942028660        17.087699598347942     
 H      9.3727644181214327        5.5175841501006602        35.108122015551594     
 H      10.242582092878370        8.2099034407468618        32.545175391056780     
 H      5.2595460563494827        8.4321937440200454        27.635148216854748     
 H      5.3204279218542077        8.8021542818003624        22.133617203831438     
 H      10.416109352576168        8.4338888935802121        37.549012989623122     
 H      9.3988250474251132        9.9822665651744522        30.864235581990336     
 H      10.279704092046158        8.2403797596705548        27.600231267985777     
 H      9.1877211798245462        5.4445304176923619        8.8027307291979202     
 H      10.372988926724453        10.252522766030106        25.480752250344963     
 H      7.6405468077426839        5.3210488208997972        25.296350815247504     
 H      11.056419919799970        8.9733059140581108        23.134080806176872     
 H      6.1723002650582037        10.258594157234807        38.690661037816682     
 H      10.280834182786453        7.4820205099309005        37.865727713087558     
 H      10.922650800178355        6.9668508575136299        23.926518031758654     
 H      10.988040854280030        9.4353505213634623        31.389044211980003     
 H      7.6593243723044147        5.3387814065876373        39.444164662846845     
 H      5.3172344688513524        8.8707207248318003        38.684750954247278     
 H      10.975907552827776        9.4814863778428720        1.7870065530645933     
 H      6.9031961094565792        10.907421161695877        25.513675161918226     
 H      9.8262057663522899        10.799762675628182        26.483794099135210     
 H      6.7038540228669481        5.7760146956281009        1.7497655437925339     
 H      5.4588159613354712        8.8544663200587586        24.028977024389032     
 H      6.9497736256781382        5.6340332332411913        30.657151742609848     
 H      7.8465560900743050        5.3596180281199199        15.730826976933889     
 H      11.185982285000625        7.6585069040817126        37.217934988595992     
 H      9.3238236948817956        11.050839482319223        25.378773054703647     
 H      11.246010972536356        8.3119603061795271        7.7424984230297147     
 H      9.9446284780523637        10.664598622653291        31.535167158763162     
 H      8.5357379576015511        10.403043937736420        30.330763161410868     
 H      10.225523307005647        7.3454656080623764        28.204659124003477     
 H      6.1763877927142099        6.1552389616538630       0.96869127759452833     
 H      11.048910017429609        9.0668975198434758        16.264719896381180     
 H      8.4284667276510827        11.231545758728629        29.715932480549036     
 H      11.015112791640773        9.0869524039797440        32.940020011810766     
 H      10.045822179758021        5.8547957931418662        24.385476849597765     
 H      9.5140821137613667        5.6301588939911866        4.0312830314388224     
 H      7.1802504468173174        10.076202431584449        14.448985602757007     
 H      10.829992748951822        6.9488466968536482        12.256342269037557     
 H      11.113179514457382        7.5786787151442230        22.968363070661496     
 H      7.4653510749958443        5.4110669573144232        31.500671675887968     
 H      11.206116115926669        8.5397888215217037        32.042404096509117     
 H      7.9944692865676981        5.3202617068226061        20.742371453249007     
 H      9.0604133971819572        11.137617221689284        35.186758753513743     
 H      7.3331282739952730        10.185527646544781        9.4390563966846912     
 H      8.7706580343878393        11.184876994823396        39.494204719792883     
 H      5.8150492058249004        9.5209723343784010        27.627118810179287     
 H      6.7567841176816490        5.6546639340754092        6.2021973478492169     
 H      5.3103906787373951        7.6882262582975649        36.440234588330192     
 H      8.1268631340862978        10.331377491086139        35.254748196997703     
 H      7.1510587812859097        11.005486785276249        24.175520100392703     
 H      7.1799540299225102        6.6345504179862349        31.235773749122789     
 H      7.7511737862630072        10.238378003022669        29.648134278414656     
 H      7.5718412174142431        5.3378952636224852        5.5238341023466644     
 H      11.223771696233140        8.5668958774646882        12.670522109950747     
 H      5.2931186479158239        7.8649039213103755        28.510102387363162     
 H      10.134549657442690        10.573885385155746        5.1194274302023270     
 H      8.9823600793574929        11.155217410039436        30.976026607107990     
 H      7.9068303179152712        11.207581006214673        38.990612718864817     
 H      5.7690974388091458        9.9172255175413575        17.828079213449367     
 H      10.924467955123681        6.9720306929705229        28.844494687131938     
 H      7.8828320761683575        5.3382941166769493        9.0450646525033509     
 H      9.8922643826597838        5.7518515454957271        28.737298178861526     
 H      7.6016212314809790        5.3519174510853906        35.148351508133580     
 H      5.3114911135803826        8.5004160442585377        11.922997922530026     
 H      7.5200574383994327        6.3918855312828899        25.688602432100897     
 H      11.087356606345617        9.1500720894616610        37.281996175077026     
 H      8.2776053099770284        5.2719174631139580        14.141609303257773     
 H      5.5745326648907181        6.9253912050165045        37.068901935070329     
 H      7.6872632756183430        11.139466251672266        30.426683363028275     
 H      8.7879513634314286        5.3235905438633937        19.745396620114047     
 H      6.3627543692237669        8.4866333353274097        28.302076310808026     
 H      10.804136681186932        6.6811916360581707        38.168942123297924     
 H      10.134364368742204        5.9949015893262745        12.927268567237922     
 H      6.2515740027992583        10.479697773844492        9.1259803702182900     
 H      11.107688243116563        9.0516965740977806        6.5447557466523119     
 H      8.7899088096777422        5.3097244758960658        15.008258684796830     
 H      5.4792888717755082        9.3879406457286674        2.2296030402364426     
 H      7.3985944834283384        6.3148625829420739        5.6631155154643844     
 H      11.066938606169799        7.3852759504809518        3.2203337282740940     
 H      6.4370981208787281        5.9343700296770256        11.017548319818017     
 H      5.4448265182813129        9.1459696564201689        28.531255604283849     
 H      7.0026515994855680        10.875088918290341        39.360707992729523     
 H      7.7923299928240484        11.183701963473025        13.960684083485985     
 H      5.9483582723323920        6.3358095796525653        36.268439688864611     
 H      7.8580186690350571        6.0089306099229800        9.8451243494540090     
 H      9.7575275622382893        9.7189800084442783        5.9926632511253182     
 H      5.4462808291861506        9.2869130708747960        13.855768459047493     
 H      11.219644595844821        8.1895840051701523        16.905639112294971     
 H      5.3262572422346874        8.8174438645697872        33.744854268570478     
 H      5.3632069413822885        8.8613363257954365        3.0761139059256011     
 H      10.357214889605929        10.313484972021461        6.5562333088199090     
 H      8.1404995889408642        6.1792057894477077        4.9418050888977252     
 H      10.954044361797299        6.9942360124986873        22.161235391868594     
 H      6.7326206051858550        9.6215075525591836        18.470028659921923     
 H      9.8184462218924864        10.805141830648903       0.13143230985248688     
 H      5.3485308206013125        7.5259259858501952        12.801938421833146     
 H      7.4576399355089888        10.230161838712172        34.454203985654559     
 H      10.679417878381342        9.9894928319035863        32.246556078733619     
 H      10.842685810473515        9.5358193220461693        12.148658515538775     
 H      9.8612285287992272        5.8327732274619724        14.430434821292511     
 H      5.9292217712607824        10.086516044770663        19.536178054410492     
 H      8.8492292189044299        5.4035103500004400        38.652223884457982     
 H      7.2712872273339650        5.4276078485198687        14.875819512843455     
 H      8.5665227906605654        10.396162331989308        25.177272461901353     
 H      11.111746300279325        7.5656296886993024        6.7178033668761703     
 H      6.0744608578974040        10.141953254085045        14.344101850538589     
 H      11.228503125487101        8.3317627233570928        26.705928801380519     
 H      7.3886095904454807        5.3816413629814921        19.874369732810592     
 H      9.9067690292081867        9.4873821637335922        11.714226449993978     
 H      5.2937837584640715        8.4844034608134535        1.5776124748145453     
 H      5.5450626976496018        6.9566634643185470        1.7907331853797561     
 H      7.4955847122445896        5.3647084980882296        1.0374291951966461     
 H      8.3173368967759025        10.479126156497122        4.5855556238032689     
 H      7.5730525597904350        11.165395246742250        4.5842586411069428     
 H      5.3582858957434309        9.0365037605675020        26.621877264603267     
 H      10.697804004343551        9.9642728131803384        36.816976704924933     
 H      9.1108635695404896        10.080720328678071        26.029254293260973     
 H      7.6142588385357755        6.6989847019652125        35.487373804852055     
 H      10.107072336639428        5.8955225269689500        17.446264551916382     
 H      5.3700148772827889        7.4160619268327732        31.587741821088578     
 H      6.7496544760909911        9.4754417698879685        13.481205882601788     
 H      9.1328003825538158        10.372996294372108        5.1788254895478874     
 H      5.2657659033872033        7.9601437851956804        38.059535122303664     
 H      9.9107551559186771        5.8516551997054860        8.1285052261007174     
 H      9.1656140138852162        11.079280298662439        4.4158759093340807     
 H      10.230833803360220        8.7919872091458426        1.6375085171950310     
 H      9.0441416196379993        11.077943027320766        20.992042474103563     
 H      8.5895551910285732        11.200065992910716        5.3489697246660803     
 H      7.8539415710556604        6.2120665348677804        30.587931801947775     
 H      8.9766096326872464        10.246322272689229       0.17792232436635655     
 H      10.912502599761549        9.5934989646109177        21.570863200453502     
 H      7.1761939395563976        11.037237054508166        14.754580094092235     
 H      5.4730470642430884        7.1196580406679670        10.859239907175363     
 H      7.9364350255905070        10.296017380072191        10.259895206396425     
 H      5.5440125123202062        9.3437523556914055        18.667665601149540     
 H      6.2242352734979995        9.0019968214706161        17.668958947126217     
 H      9.4329183014554197        10.891797745643702        30.058250351776067     
 H      8.7427534608663837        11.207929962345382        14.701108122659122     
 H      8.4887177482716378        11.237846535166067        19.625964901838572     
 H      9.8551653558703904        10.725387134345656        10.005651171116439     
 H      5.7666196772414384        6.5988758307288888        6.3791139523807567     
 H      8.3705257927474399        5.9875679377103692        35.021776414013289     
 H      5.5501516948863152        9.5060011193730780        32.868542489331240     
 H      10.298612131343978        7.7717424214746433        2.3052303925749555     
 H      5.6284782934576425        9.6182055079396864        39.368997372284937     
 H      10.773058061707259        6.6803418034299273        7.4938771968877331     
 H      10.006720259791397        7.1078933188139883        17.948546227888837     
 H      7.3302797896705281        5.3995636472685664        21.727390013991428     
 H      7.1919862320986843        11.021177298036136        10.034451105017888     
 H      5.5691123052318154        7.0069840986204541        27.634645272051589     
 H      9.1937365446530812        5.5375331873376963        13.740614327279401     
 H      9.6622265384883086        6.7387153536345359        18.856056112324936     
 H      5.9749959951691514        10.151417363360144        24.140186467829366     
 H      11.248185823870500        8.1909599623350182        33.679818981017782     
 H      10.162015361436680        10.557430754564374        16.552052856988198     
 H      11.199222924130153        8.5027959413182295        36.397173161865204     
 H      8.2635610067338021        11.246100932302353        34.558942882581306     
 H      6.8655865753994973        5.5930350989218569        9.8925941596440214     
 H      11.033364780759197        7.2402827180735798        8.2916850265684321     
 H      6.9895340970100461        5.5373268603891201        26.278033068273697     
 H      6.8700458078447619        10.890306120823240        3.5900344516241613     
 H      10.453663874198833        10.271949613477494        30.744999115396748     
 H      11.073533370397994        8.8850324096712452        27.539395656137842     
 H      10.189185589763149        7.3761120316766782        33.098064820810009     
 H      6.0441150586812711        10.263552315150136        2.9510307692287343     
 H      5.8821633926540491        9.8938428193062737        13.110566116954670     
 H      5.2835757252967186        7.8530869778932662        32.900850849474701     
 H      11.176896931656659        8.8092642870772764        17.725527756120101     
 H      5.9958706899485978        10.218890056893146        29.024058852335365     
 H      6.2401730756443072        8.6032486384958062        22.904239416931627     
 H      5.6139256822854371        6.8422731211804031        32.379445398648855     
 H      10.953626057859728        7.0019198195834225        17.548048909789351     
 H      8.4107659150996223        6.1191604991071511        39.476090552738043     
 H      6.7734587730926004        10.832281939815843        8.3380501235961404     
 H      10.710094226358402        6.6191706790552463        3.9826138857075342     
 H      6.3430606723410889        10.562036661073897        23.166457575221653     
 H      11.179724564714672        7.6979757288686406        18.556556051159433     
 H      6.5053402940862952        7.1461388427037988        36.649240556438329     
 H      6.1023197854824227        6.1965922773331004        21.830714636045833     
 H      9.0046850542836729        10.042062212777401        35.749765408594925     
 H      5.3705041356187504        7.4101416536475897        21.941053806012913     
 H      8.4620121234831878        5.2797332746967927        30.686713160107104     
 H      10.350388278166113        9.0038045213525635        22.176452873169747     
 H      7.1518008035711036        5.5195452331651369        4.6245193918938767     
 H      9.5183519509687589        5.6122707355964163        30.145955800786719     
 H      6.1847929622932627        6.0961375131226205        31.717368489993081     
 H      6.0515252724375470        7.8067780441980688        37.288556933507436     
 H      8.7778150029486746        5.3601631499060680        29.403155964883055     
 H      11.178398718603479        8.8320043162503623        1.0223948984735201     
 H      9.3144124496856815        10.093589121909554        20.999214430740281     
 H      9.9910585970102108        7.2884770039207520        23.154777640185536     
 H      6.8831257194066158        5.6378510028703532       0.24041287701500871     
 H      6.7578268801385226        5.7050825176042359        16.306366527216472     
 H      6.1780084914451905        8.6582157049387796        32.648636968755440     
 H      10.221678701341785        8.1323085412894862        12.679468023580915     
 H      10.129326063730248        5.9235782330179081        38.739267958096860     
 H      8.1810305688787857        11.234486532945770        3.7913064804732897     
 H      7.4666730112954571        11.104090705190613        35.325085376705715     
 H      11.032947623626468        7.3306540046341508        13.222364408611831     
 H      5.2988275607876085        7.9035150882594820        2.5263129395915138     
 H      11.205439977954887        7.7884976035940294        1.7220020626053933     
 H      6.3092429197269411        7.9585803228797376        27.348876486383229     
 H      5.4307009423613133        7.6315199942323719        26.734601681627154     
 H      6.2560016802501028        6.1128322147112311        26.773167850941334     
 H      5.2593700167999771        8.2320942921518192        23.048614761379127     
 H      11.014441911826726        7.2842591017766622        27.447747152676147     
 H      5.4677094800770663        9.2325021615449163        6.6061042136968888     
 H      9.8673722513796207        10.665385946097560        35.994569255047942     
 H      5.2774393344298645        8.6180029028098861        37.284383320808040     
 H      6.4285080500639289        7.5848913416044379        16.795899374626153     
 H      9.7150302238566528        10.867785274367044        15.223318201038774     
 H      11.201975617091195        8.1747589673779064        23.798998809633140     
 H      5.7839327221638808        6.6996059863061701        16.237589214535671     
 H      6.2353144201949577        6.0556152038774300        17.314805794184274     
 H      7.4284063307843686        10.120535489763377        19.001256109600689     
 H      7.4273646595224632        11.103009310355642        29.107548191752617     
 H      10.581382121638665        6.4533306977577860        13.794019823886387     
 H      7.0466383127701819        9.8231027142585337        3.4861623504904724     
 H      5.2703027711664419        8.5869307926138330        13.113142858146960     
 H      9.9504938806327026        9.1220066465067600        36.800777403985094     
 H      6.1082791990771197        8.2425019233869552        12.617277706846306     
 H      9.0273619980565396        11.097146284961408       0.83097609649577620     
 H      5.7976776652555495        6.7046547432852988        20.974875963806181     
 H      5.5839748781206362        9.5811303670146923        23.126973007165851     
 H      7.6981404133644027        10.078797839555424        39.458818506423384     
 H      8.1164927977408645        10.311628266154452        14.791144606144941     
 H      7.2006317768104209        6.1980762497506783        15.516359547579208     
 H      7.7010139211374655        6.2886721667020522        20.539376935669697     
 H      10.603828533105176        10.096210811839001        10.701711052276453     
 H      6.1510526067447993        8.7054335567921779        38.030281369328350     
 H      6.2921881694404940        5.9770605577765643        5.3733220462057325     
 H      10.220655742543368        8.0070257905787354        22.459799548769098     
 H      8.0154804412471563        5.2752808281906836        3.8165101416499012     
 H      10.667230557950885        6.5092906881361259        33.355541766910740     
 H      5.3517407150171055        7.4862859486818500        11.795869388902972     
 H      10.477882648014521        6.2649038486750612        18.325763337796811     
 H      10.086049287070885        5.9822602087281949        19.599886590206456     
 H      6.2214154670215898        8.3161150349399460        2.7252729045279884     
 H      8.5653385023404809        5.3348890951770782        24.203139005070092     
 H      10.586004991079847        10.080874133939107        15.781607254344010     
 H      5.6529579547836128        9.5795900611114142        8.3571621392583708     
