         153

 H      9.2672857019824644        4.7584624447591217        2.0595076516245352     
 H      3.9082564944623539        8.7535745209448788        37.446633612112713     
 H      3.1405712605194807        5.7686190810081213        37.369873144148130     
 H      6.1284070643932287        4.9144692575198308        8.1629822304671222     
 H      9.9058061891184561        7.0222469004688177        19.094825358307713     
 H      8.2657016441848370        6.6855407630664709        38.880173274075545     
 H      8.6975899372873489        5.8301614973373770        24.994631239400189     
 H      6.1844625843132448        9.8034847836632562        5.3447704555164508     
 H      6.6606328885972355        4.8857819163874918        10.830019582014005     
 H      9.4927448987382270        8.0267820344866472        4.5757586615432233     
 H      9.8601223559279010        5.6573965985986190        6.5439897081833758     
 H      8.9950189663489724        4.0534016439930154       0.15317801240776682     
 H      4.0670076116815448        4.0893049311348486        24.055816686670234     
 H      7.7994799560281525        7.2377376330734009        3.5818258555715476     
 H      3.9005066968317279        4.1740972490533732        21.704335820094212     
 H      6.7894813019470908        5.2770896179406765        39.327879569735359     
 H      8.3943510868127156        3.6273118529554984        10.756887335289818     
 H      5.1009729600965992        6.3326948457188772        38.516136277367941     
 H      3.3088779341854728        7.8063557067828535        37.602982057230399     
 H      8.0016384584994871        3.4786149376981794        27.460534343656178     
 H      4.7458846418363541        3.4934783716995543        22.072374117752346     
 H      6.8895013316767715        7.8352724258663411        3.8228597888564235     
 H      9.8239339452289745        6.0634870191811583        23.059700436744190     
 H      3.9934910240662536        4.0716764677007511        7.2255297798369202     
 H      9.2688464365084453        4.5084977131146617        8.9744987737203346     
 H      6.8982885760251262        7.9297631740439405        6.0209700087048894     
 H      4.0243398096987306        4.1135445757726350        9.2274117785742593     
 H      6.1780453795055861        9.7648210093158596        26.670752629282703     
 H      6.9578990514355086        8.2416754155787597        39.881963914131475     
 H      3.0367368424899306        6.5445202772691671        3.9782004277121237     
 H      6.6237888519426473        4.0480391507706450        21.631670516747544     
 H      6.8724630634093113        4.1403959584739081        23.614066231062786     
 H      7.0374930379886722        9.7156221560177336        28.632555023135865     
 H      3.3250203355747656        6.4338564870640527        27.312537092262755     
 H      5.9701048015859133        8.0565810648290945        4.1572462135004145     
 H      9.4068974822877820        4.5743117448112596        16.659236389167113     
 H      3.0460835843349079        7.0465204827299601        13.111804036271312     
 H      3.8515776600306459        8.5722379251430727        2.1817633158325767     
 H      7.0784031186860998        7.9491743603417238        37.881573414441966     
 H      9.9902343674405927        6.4646127872829391        37.839659636881912     
 H      4.6766308932736527        3.5379525150174413        38.807410520443135     
 H      7.0403493469888456        5.9994596311862214        21.786752688876859     
 H      9.7805475566506637        5.3537120293680651        8.7851402120590478     
 H      9.0244094635701231        4.1011850265885021        12.631603967206038     
 H      7.7678870368239394        3.2604968252655393        38.309292120297584     
 H      4.9987637530243978        3.3449580841062283        3.4210443838723448     
 H      7.0824946442986665        9.7905995183030150        36.507233312771618     
 H      7.7010848735565531        7.4149561628609915        5.6354772450329911     
 H      8.0908534523893252        9.5603834526315890        11.641796653688630     
 H      6.2753432496048145        5.1279582195203242        35.312454717407249     
 H      3.4032376098771935        8.1001021660417312        31.371755202520173     
 H      5.3921089058304084        7.8443868725024721        34.316689600236600     
 H      3.5554501696336431        5.2905259869322245        39.301201872294008     
 H      8.0729908865372195        3.5865888317395540       0.34591408827598269     
 H      8.9043780197799691        8.9639494527706400        28.539894721608945     
 H      9.4191199499630454        4.6511493227096548        6.3913904839412545     
 H      7.3420611556940525        5.6092357750352209        19.706048506551493     
 H      6.8558293725284569        6.0955715790844760        24.041749727109377     
 H      4.7609850447563709        6.8572086284375633        5.2606081534929467     
 H      9.9337818775037761        5.9675663359686180        27.014015282784452     
 H      6.0155756934691560        3.0814002558404834        36.569673750320632     
 H      9.6094255724375568        4.9524490361974047        18.851464929608287     
 H      3.7951102503130061        4.4071494155320208        19.718457749998478     
 H      4.9734751732421119        9.5850598417718995        13.984003171696235     
 H      5.4440294475753337        9.7776650106996463        38.610195199943071     
 H      3.1610944631091655        5.8687452709832488        23.595005480454294     
 H      7.2894823092621674        9.3425437550761412        15.846644613326502     
 H      7.8882501089382986        3.3010731596255751        14.164494405752857     
 H      7.3278470741778801        3.1319277734461126        18.222542559018855     
 H      9.2013373473893729        4.4865651183347026        29.449549118193772     
 H      7.3345922720139551        7.8736409091877935        18.921809186837745     
 H      5.2044701607043597        5.7088965460023982        27.162230778669603     
 H      7.9806555266791959        9.6504279837107685        24.062975039212759     
 H      4.8452453856008226        6.8873910114284493        2.9625907695568006     
 H      7.5408227390426879        5.9637017745762959        39.121063563753637     
 H      3.2477537694187220        7.3941122196128948        26.717497578171585     
 H      9.5918859916023784        7.9741111712568085        35.796034799614198     
 H      4.7936946045848572        9.4902472539375768        24.856655236276456     
 H      6.4026560907113916        7.3791216509473498        36.058642848906160     
 H      5.9926279063011263        7.9448888256710379        6.5342105326045541     
 H      7.5575297950766513        3.2175202355819126        25.515163767117393     
 H      9.7705577231702279        5.3240485215057367        29.336924706932056     
 H      7.7503635694071331        7.6877685700304745        27.427586576601591     
 H      4.2716541120106388        8.9046851731077634        28.879180349935513     
 H      7.0506312663878905        5.0203579422775748        12.868807447550330     
 H      6.7259049286505279        7.9932414669905958        27.637206955092257     
 H      3.4442907795633642        7.6948011726735448        33.354768553925702     
 H      5.9168981272588939        8.1139006279709331        23.689569211544445     
 H      7.8289905451934869        9.7350933289516774        30.568024221744118     
 H      8.3482114654971813        6.5565172940114467        28.104026379077762     
 H      7.5992436450902288        7.9773466241812150        25.140620072227556     
 H      4.3097752025092104        9.0330327912292887        5.0532486642966097     
 H      4.8833342056879863        3.4571138632522485        7.3156073597960694     
 H      7.5183872846596254        9.8470072314315615        17.768866361652432     
 H      4.4488123168333011        9.2729492580550463        2.6505798706899992     
 H      4.8812911482850563        9.5878935413862205        33.371168700525772     
 H      4.8952506437954524        3.4181925388709393        13.713934495532074     
 H      6.9527322422180209        3.0366451893326691        27.591931837478082     
 H      4.6001590245779509        9.3313287232015085        38.106216020848215     
 H      6.7033249552561465        3.0207148739323428        21.558637851596263     
 H      6.7267823008407097        9.6680039397632900        32.540104100350675     
 H      9.9752361062071451        6.1654881630789502        20.920920691650434     
 H      5.5380089927765290        9.7751657439337869        18.247118654991276     
 H      3.1676194200755350        5.7101826223477659        6.3609906593724252     
 H      3.6135458820096376        8.4508175149215976        15.507117404888987     
 H      8.5386883882876656        3.6562080782247550        29.816693888993825     
 H      8.1201223331806283        9.4568560318139401        4.9342525170901270     
 H      7.4070636621801063        5.1839747188208092        17.592435081568031     
 H      9.8619784762085754        6.9773812836385556        26.759277298942777     
 H      6.1244017259643497        3.1723593036545372        5.2231576564950020     
 H      4.1459656091603403        4.0458709762545979        36.847324071468172     
 H      6.4145144700499959        3.0719077264473205        29.715829175597825     
 H      5.0460744641496378        6.4901327325283793        22.824140986147199     
 H      3.0158028729695845        6.8163871331054242        37.611198760007795     
 H      4.9029954368244661        3.5671393690946700        28.229449073257548     
 H      9.4237055870150428        4.6774334216615703        33.708403069482493     
 H      8.4778528771032367        4.2093798247816370        2.5972144439230012     
 H      9.8336474159550367        5.6779503783827714        16.679341306387787     
 H      5.6833411395230229        4.1659655245985254        17.576505400446472     
 H      5.2088593645664112        5.4816714690798642        29.611097864066679     
 H      8.1987244890281481        9.5399212676442779        26.440314953108473     
 H      9.7556689555020117        6.7398006720325272        14.957568301851252     
 H      8.4780586974024743        3.6470580691677399        11.765146293967561     
 H      6.5920347905039387        8.3134140516082642        8.5136635911946197     
 H      5.1741091680662556        9.5674618654533852        27.110746241917983     
 H      9.4924058027391478        4.7304233636089039        14.478557525011368     
 H      9.7267319130085887        5.8287979358954711        1.9741645510336030     
 H      3.3050904275497781        7.9214717318777517        8.7926927754226458     
 H      6.1805084562537731        5.9820146190453221        4.1522911215095473     
 H      7.6404391187286809        7.6034358624885119        14.524225008501821     
 H      4.1316691096066362        8.4691691525900090        9.2862440130353772     
 H      7.9036838919064847        3.3351353473505938        2.4379402619759469     
 H      9.8204983897481171        7.4938395610201880        24.821679728551757     
 H      7.4639744932683847        5.4515506589229821        32.896434848509998     
 H      8.8452285233758285        4.3854868215111349        20.704911264279495     
 H      4.2101609749756914        3.9036822444965580        5.2192400430886616     
 H      9.1926896980243864        8.6663423021338524        2.6353361746326462     
 H      6.7267073230655861        3.2891431952454520        38.556589113915678     
 H      5.9774118762302457        3.1736023443156585        3.1586398037452197     
 H      5.1749556669967296        9.6736565667635794        22.384651994520539     
 H      7.8257980655698569        7.5695100761694585        11.997450058766949     
 H      9.8719932130964665        7.2461875414754982        32.210202560605524     
 H      3.2717548265052776        5.5209017353156584        4.2389055781996881     
 H      8.0045367219391963        6.3834826794651791        1.0957298598954732     
 H      5.1136875488513649        9.4267950949173631        20.394546250571320     
 H      5.2847492865842929        5.4156260395602658        20.722546626386205     
 H      9.3202600909543953        8.5154334977764599        38.446626390309575     
 H      9.9700091036843119        6.0663470891266797        39.820633970571066     
 H      4.0393158017860582        4.1508390504296386        13.627802261985938     
 H      5.0657498596276263        5.8264859032794369        31.775636748984798     
 H      6.2454101116497460        3.0651263886094893        25.623856825548156     
 H      5.7752564527834185        5.1289838634972336        2.2685025921988768     
 H      9.5754864263566173        8.1254796679492678        28.378593059212516     
